20
10_1.log	Energy: -697386.3607254
O          1.07936        3.67449       -0.03749
N          0.00001        3.10490        0.00000
C          0.00000        1.63255       -0.00000
C          1.21374        0.96689       -0.02022
C          1.20048       -0.42007       -0.02283
C          2.50462       -1.17301       -0.00188
F          2.40617       -2.37423       -0.60175
F          3.48983       -0.49625       -0.62090
F          2.92565       -1.40346        1.26344
C         -0.00001       -1.11991       -0.00001
C         -1.20048       -0.42006        0.02283
C         -2.50462       -1.17300        0.00188
F         -2.92558       -1.40359       -1.26344
F         -2.40621       -2.37415        0.60189
F         -3.48987       -0.49617        0.62077
C         -1.21374        0.96690        0.02022
O         -1.07934        3.67450        0.03749
H          2.13908        1.52155       -0.03312
H         -0.00001       -2.20039       -0.00001
H         -2.13908        1.52156        0.03311
