20
14_1.log	Energy: -892401.2125021
F          0.09587        2.11961       -0.58597
C         -0.58547        0.98594       -0.41120
C          0.06963       -0.24522       -0.45092
S          1.80791       -0.37466       -0.77580
O          2.22919        0.62589       -1.71325
C          2.56555        0.09670        0.87855
F          3.88638       -0.01421        0.77048
F          2.12770       -0.72652        1.82971
F          2.25080        1.34774        1.20327
O          2.14095       -1.76003       -0.95763
C         -0.65097       -1.42017       -0.24808
C         -2.01504       -1.36655       -0.01772
C         -2.62837       -0.12434        0.01095
N         -4.08337       -0.05333        0.26401
O         -4.68755       -1.10497        0.39202
O         -4.59443        1.05222        0.33118
C         -1.94339        1.06367       -0.18127
H         -0.13968       -2.37091       -0.27767
H         -2.58687       -2.26733        0.13901
H         -2.44020        2.02138       -0.15447
