20
14_4.log	Energy: -892397.0389052
F         -0.40431        2.56090       -0.04407
C         -0.85861        1.30206       -0.01681
C          0.05472        0.24932        0.03406
S          1.77905        0.70458        0.05753
O          2.11082        1.25225        1.34318
C          2.72465       -0.92407       -0.05416
F          2.39016       -1.59803       -1.15152
F          2.51467       -1.68268        1.01833
F          4.01060       -0.59515       -0.11326
O          2.10374        1.40268       -1.15460
C         -0.41020       -1.06051        0.07906
C         -1.77449       -1.30836        0.06257
C         -2.64667       -0.23517        0.00517
N         -4.09922       -0.49544       -0.01335
O         -4.84846        0.46695       -0.05128
O         -4.46748       -1.65837        0.01019
C         -2.21734        1.08173       -0.03333
H          0.26436       -1.89998        0.12675
H         -2.14835       -2.31950        0.09471
H         -2.90768        1.91076       -0.07333
