17
1_1.log	Energy: -298884.3349678
C          2.87063       -1.38255        0.00286
C          1.73869       -0.39513       -0.00235
C          1.99222        0.98068       -0.00220
C          0.95762        1.90754       -0.00044
C         -0.36388        1.48387        0.00086
C         -0.60784        0.11864        0.00010
N         -1.99714       -0.35152        0.00015
O         -2.89135        0.48504        0.00317
O         -2.20103       -1.55897       -0.00268
C          0.41548       -0.82170       -0.00175
H          2.50405       -2.40554       -0.07543
H          3.55341       -1.19698       -0.82914
H          3.45297       -1.29904        0.92388
H          3.01851        1.32771       -0.00414
H          1.17946        2.96643       -0.00093
H         -1.18313        2.18603        0.00145
H          0.17623       -1.87463       -0.00315
