14
3_1.log	Energy: -336499.1101961
F          3.39406        0.00000       -0.00000
C          2.04746       -0.00000        0.00000
C          1.38725       -1.21792       -0.00052
C          0.00284       -1.21647       -0.00047
C         -0.66977        0.00000        0.00000
N         -2.13225       -0.00000       -0.00000
O         -2.71049       -1.07944        0.00128
O         -2.71049        1.07944       -0.00128
C          0.00284        1.21647        0.00047
C          1.38725        1.21792        0.00052
H          1.95017       -2.14068       -0.00095
H         -0.55024       -2.14293       -0.00085
H         -0.55024        2.14293        0.00085
H          1.95017        2.14068        0.00095
