15
7_1.log	Energy: -332106.4040971
N         -3.72053       -1.38719       -0.00011
C         -2.74437       -0.77595       -0.00007
C         -1.53781       -0.01156       -0.00001
C         -1.59862        1.38694        0.00018
C         -0.42614        2.12740        0.00025
C          0.80624        1.48949        0.00018
C          0.84010        0.10182       -0.00002
N          2.14326       -0.57998       -0.00008
O          3.15015        0.11227        0.00058
O          2.15151       -1.80191       -0.00077
C         -0.30864       -0.66931       -0.00013
H         -2.56032        1.88037        0.00026
H         -0.47119        3.20743        0.00038
H          1.72669        2.05316        0.00025
H         -0.25218       -1.74661       -0.00029
