24
10_1.log	Energy: -244542.1886320
C         -0.81417        1.21370       -0.00004
C         -2.20708        1.19880       -0.00001
C         -2.89675       -0.00521       -0.00000
C         -2.17731       -1.19643       -0.00001
C         -0.78965       -1.17515       -0.00004
C         -0.07609        0.02953       -0.00006
C          1.45553        0.00710       -0.00000
C          1.95541       -0.73132       -1.25488
C          2.05980        1.41526       -0.00040
C          1.95522       -0.73057        1.25539
H         -0.30871        2.16843       -0.00006
H         -2.75021        2.13600        0.00000
H         -3.97940       -0.01836        0.00002
H         -2.69893       -2.14574       -0.00000
H         -0.25486       -2.11610       -0.00003
H          1.61405       -0.22978       -2.16296
H          1.59949       -1.76176       -1.28599
H          3.04774       -0.75373       -1.26874
H          1.76592        1.98349        0.88421
H          3.14903        1.34287       -0.00042
H          1.76584        1.98301       -0.88529
H          3.04755       -0.75308        1.26939
H          1.59918       -1.76094        1.28709
H          1.61380       -0.22843        2.16312
