17
13_1.log	Energy: -205244.3330092
C         -0.24830       -1.19961       -0.18627
C         -1.61112       -1.20199        0.08830
C         -2.29622        0.00060        0.22759
C         -1.61023        1.20262        0.08758
C         -0.24743        1.19908       -0.18698
C          0.45208       -0.00057       -0.32407
C          1.94463       -0.00113       -0.55597
N          2.75576        0.00080        0.67117
H          0.27962       -2.13995       -0.29930
H         -2.13995       -2.14187        0.18818
H         -3.35827        0.00106        0.43808
H         -2.13838        2.14294        0.18687
H          0.28116        2.13898       -0.30059
H          2.22481        0.87637       -1.14206
H          2.22456       -0.88066       -1.13914
H          2.51770       -0.80923        1.23568
H          2.51797        0.81276        1.23300
