17
13_2.log	Energy: -205243.8580472
C         -0.00283        1.04343        0.00267
C         -1.36092        1.35508        0.00108
C         -2.31155        0.34349       -0.00127
C         -1.89490       -0.98570       -0.00214
C         -0.54129       -1.29074       -0.00063
C          0.42487       -0.28082        0.00193
C          1.89553       -0.66748        0.00487
N          2.88542        0.40008       -0.00565
H          0.72581        1.84390        0.00430
H         -1.67270        2.39237        0.00164
H         -3.36703        0.58460       -0.00259
H         -2.62741       -1.78358       -0.00421
H         -0.22493       -2.32825       -0.00154
H          2.08268       -1.30896       -0.86087
H          2.08377       -1.29201        0.88275
H          2.77684        0.99955        0.80517
H          2.77164        0.98819       -0.82410
