17
14_1.log	Energy: -205244.2580375
C         -0.52374       -1.29518       -0.00430
C         -1.87293       -0.99066        0.04028
C         -2.30617        0.33497        0.03580
C         -1.35606        1.34720       -0.01052
C          0.00348        1.05686       -0.05148
C          0.44386       -0.27550       -0.05547
N          1.78095       -0.60699       -0.13941
C          2.82678        0.36444        0.09861
H         -0.19799       -2.32933       -0.00422
H         -2.59600       -1.79647        0.08030
H         -3.36189        0.56952        0.07002
H         -1.67082        2.38392       -0.01050
H          0.71990        1.86558       -0.08292
H          1.99809       -1.54793        0.14789
H          2.73332        0.86431        1.07150
H          3.78775       -0.14632        0.06385
H          2.82969        1.13288       -0.67767
