20
15_1.log	Energy: -229919.6198117
C          0.54953        1.20356       -0.04192
C          1.93567        1.19354        0.01069
C          2.64740       -0.00086        0.04183
C          1.93460       -1.19477        0.02534
C          0.54829       -1.20436       -0.02737
C         -0.18414       -0.00037       -0.07785
N         -1.56335        0.00158       -0.16840
C         -2.28837       -1.23493        0.05226
C         -2.28363        1.23649        0.07870
H          0.03709        2.15333       -0.05744
H          2.46413        2.13918        0.03295
H          3.72850       -0.00110        0.08582
H          2.46209       -2.14056        0.06059
H          0.03559       -2.15405       -0.02850
H         -1.96630       -2.00803       -0.64678
H         -3.34750       -1.05777       -0.12111
H         -2.16482       -1.62368        1.07254
H         -3.34823        1.05505       -0.04976
H         -2.12013        1.62536        1.09294
H         -1.99297        2.01147       -0.63255
