20
15_2.log	Energy: -229919.6198701
C          0.54956        1.20354        0.04228
C          1.93568        1.19349       -0.01042
C          2.64742       -0.00087       -0.04198
C          1.93463       -1.19479       -0.02569
C          0.54837       -1.20445        0.02729
C         -0.18412       -0.00042        0.07807
N         -1.56332        0.00162        0.16851
C         -2.28867       -1.23480       -0.05192
C         -2.28350        1.23648       -0.07929
H          0.03704        2.15323        0.05821
H          2.46413        2.13915       -0.03242
H          3.72850       -0.00110       -0.08618
H          2.46213       -2.14057       -0.06130
H          0.03559       -2.15407        0.02839
H         -1.96702       -2.00776        0.64746
H         -2.16499       -1.62390       -1.07202
H         -3.34770       -1.05703        0.12137
H         -2.11964        1.62491       -1.09364
H         -3.34812        1.05501        0.04881
H         -1.99294        2.01171        0.63172
