19
17_1.log	Energy: -242400.2118730
C         -0.73280       -1.27283       -0.09839
C         -2.10887       -1.07470       -0.03997
C         -2.62285        0.21246        0.05624
C         -1.75303        1.29844        0.09630
C         -0.38052        1.09476        0.04395
C          0.14646       -0.19376       -0.05637
C          1.64376       -0.41987       -0.10870
C          2.33410       -0.03581        1.19414
O          2.24585        0.25176       -1.22607
H         -0.33610       -2.27796       -0.18153
H         -2.77779       -1.92560       -0.07517
H         -3.69302        0.37106        0.09758
H         -2.14572        2.30494        0.17047
H          0.28313        1.95112        0.08092
H          1.81987       -1.47829       -0.30601
H          3.40334       -0.24408        1.12828
H          2.19866        1.02824        1.40466
H          1.91859       -0.59898        2.03197
H          2.20479        1.20347       -1.06580
