19
17_10.log	Energy: -242400.4259717
C          0.69927       -1.20972        0.36746
C          2.07439       -1.07937        0.21164
C          2.62241        0.15160       -0.13239
C          1.78575        1.24702       -0.31834
C          0.41022        1.11293       -0.16727
C         -0.14599       -0.11809        0.17656
C         -1.64132       -0.29891        0.28545
C         -2.26202       -0.65504       -1.06254
O         -2.20692        0.91063        0.80319
H          0.27717       -2.16879        0.64516
H          2.71791       -1.93651        0.36644
H          3.69361        0.25772       -0.24915
H          2.20549        2.21029       -0.58102
H         -0.23804        1.96729       -0.30666
H         -1.83480       -1.11772        0.98852
H         -1.83226       -1.57955       -1.45223
H         -3.34101       -0.80067       -0.96030
H         -2.08132        0.14296       -1.78549
H         -3.16764        0.83739        0.74583
