19
17_2.log	Energy: -242400.3143911
C         -0.45911        1.14660        0.13198
C         -1.83860        1.22457        0.30290
C         -2.62962        0.09375        0.14496
C         -2.03206       -1.11810       -0.18979
C         -0.65585       -1.19260       -0.35725
C          0.14796       -0.06276       -0.19435
C          1.65328       -0.19298       -0.34822
C          2.27587       -0.92357        0.83784
O          2.29992        1.06054       -0.56504
H          0.14259        2.03954        0.23617
H         -2.29444        2.17430        0.55441
H         -3.70280        0.15540        0.27396
H         -2.63991       -2.00409       -0.32541
H         -0.19910       -2.13882       -0.62421
H          1.85083       -0.76461       -1.25833
H          3.35044       -1.03951        0.68586
H          2.10745       -0.35885        1.75937
H          1.83360       -1.91223        0.96664
H          2.38075        1.51511        0.28350
