19
17_3.log	Energy: -242400.3143685
C         -0.45903        1.14657        0.13197
C         -1.83851        1.22462        0.30297
C         -2.62958        0.09385        0.14504
C         -2.03212       -1.11802       -0.18985
C         -0.65593       -1.19261       -0.35740
C          0.14795       -0.06281       -0.19440
C          1.65326       -0.19306       -0.34822
C          2.27572       -0.92353        0.83808
O          2.29993        1.06049       -0.56521
H          0.14285        2.03939        0.23605
H         -2.29430        2.17436        0.55452
H         -3.70275        0.15556        0.27409
H         -2.64007       -2.00395       -0.32548
H         -0.19922       -2.13881       -0.62446
H          1.85100       -0.76477       -1.25821
H          2.10686       -0.35888        1.75954
H          1.83352       -1.91225        0.96659
H          3.35036       -1.03934        0.68645
H          2.38168        1.51469        0.28343
