19
17_4.log	Energy: -242400.3143974
C         -0.45909        1.14657        0.13203
C         -1.83860        1.22457        0.30294
C         -2.62965        0.09378        0.14495
C         -2.03210       -1.11809       -0.18982
C         -0.65589       -1.19261       -0.35726
C          0.14795       -0.06279       -0.19430
C          1.65331       -0.19299       -0.34818
C          2.27594       -0.92343        0.83795
O          2.29986        1.06042       -0.56526
H          0.14263        2.03950        0.23625
H         -2.29441        2.17431        0.55448
H         -3.70283        0.15543        0.27394
H         -2.63998       -2.00406       -0.32550
H         -0.19916       -2.13884       -0.62423
H          1.85077       -0.76482       -1.25818
H          3.35051       -1.03944        0.68592
H          2.10763       -0.35853        1.75941
H          1.83366       -1.91205        0.96700
H          2.38102        1.51508        0.28320
