19
17_6.log	Energy: -242400.4259447
C         -0.41014        1.11293        0.16722
C         -1.78568        1.24705        0.31837
C         -2.62234        0.15165        0.13243
C         -2.07436       -1.07934       -0.21168
C         -0.69925       -1.20974       -0.36756
C          0.14599       -0.11808       -0.17669
C          1.64132       -0.29892       -0.28555
C          2.26178       -0.65537        1.06249
O          2.20698        0.91090       -0.80281
H          0.23821        1.96721        0.30660
H         -2.20540        2.21029        0.58118
H         -3.69354        0.25778        0.24918
H         -2.71792       -1.93644       -0.36645
H         -0.27715       -2.16882       -0.64520
H          1.83495       -1.11739       -0.98899
H          3.34076       -0.80110        0.96059
H          2.08095        0.14267        1.78536
H          1.83168       -1.57979        1.45197
H          3.16770        0.83728       -0.74590
