19
17_7.log	Energy: -242400.2117958
C          0.73274       -1.27328        0.09295
C          2.10896       -1.07490        0.03611
C          2.62302        0.21263       -0.05492
C          1.75320        1.29892       -0.09129
C          0.38064        1.09497       -0.04056
C         -0.14648       -0.19411        0.05447
C         -1.64391       -0.42043        0.10511
C         -2.33516       -0.02503       -1.19365
O         -2.24561        0.24062        1.22873
H          0.33605       -2.27881        0.17176
H          2.77789       -1.92594        0.06839
H          3.69326        0.37127       -0.09521
H          2.14601        2.30568       -0.16167
H         -0.28318        1.95135       -0.07507
H         -1.81954       -1.48072        0.29262
H         -3.40452       -0.23310       -1.12797
H         -2.19948        1.04053       -1.39643
H         -1.92134       -0.58203       -2.03652
H         -2.19830        1.19413        1.08099
