19
17_8.log	Energy: -242400.1892940
C         -0.73488       -1.27619        0.03249
C         -2.11117       -1.07191        0.04897
C         -2.62311        0.21943        0.02264
C         -1.75125        1.30381       -0.01874
C         -0.37853        1.09465       -0.02905
C          0.14689       -0.19885       -0.00531
C          1.64369       -0.43216       -0.02820
C          2.36006        0.20150        1.15708
O          2.22469       -0.00130       -1.27013
H         -0.33981       -2.28528        0.04691
H         -2.78177       -1.92172        0.07853
H         -3.69342        0.38225        0.03337
H         -2.14254        2.31339       -0.03879
H          0.28730        1.94960       -0.05436
H          1.81814       -1.50887       -0.01313
H          2.23354        1.28713        1.15641
H          1.96277       -0.18279        2.09870
H          3.42721       -0.02193        1.11089
H          2.12085        0.95704       -1.33682
