14
18_1.log	Energy: -216957.6173088
C         -0.34968        1.28296       -0.00004
C         -1.72063        1.06405       -0.00007
C         -2.21030       -0.23779       -0.00003
C         -1.33247       -1.32205        0.00005
C          0.03499       -1.10546        0.00008
C          0.53300        0.20160        0.00004
C          1.98192        0.46258        0.00008
O          2.84416       -0.39106       -0.00006
H          0.04470        2.29259       -0.00006
H         -2.40563        1.90208       -0.00013
H         -3.27921       -0.41072       -0.00006
H         -1.72141       -2.33221        0.00007
H          0.73121       -1.93401        0.00013
H          2.25607        1.53550       -0.00012
