17
19_1.log	Energy: -241645.9954348
C          0.57938       -1.21910        0.00074
C          1.96200       -1.13152        0.00088
C          2.58068        0.11634        0.00008
C          1.81030        1.27337       -0.00080
C          0.42398        1.18589       -0.00081
C         -0.20571       -0.06174       -0.00006
C         -1.69342       -0.20141       -0.00021
C         -2.53917        1.04576        0.00161
O         -2.21293       -1.30424       -0.00180
H          0.08618       -2.18142        0.00130
H          2.56084       -2.03333        0.00161
H          3.66119        0.18534        0.00016
H          2.28867        2.24431       -0.00147
H         -0.16164        2.09443       -0.00149
H         -2.32620        1.65676       -0.87852
H         -3.59016        0.76593        0.00288
H         -2.32370        1.65630        0.88140
