17
19_2.log	Energy: -241645.9954586
C         -0.57939       -1.21911        0.00001
C         -1.96202       -1.13153        0.00001
C         -2.58068        0.11635        0.00000
C         -1.81025        1.27339       -0.00001
C         -0.42396        1.18591       -0.00001
C          0.20579       -0.06176        0.00000
C          1.69335       -0.20142       -0.00000
C          2.53911        1.04578        0.00002
O          2.21293       -1.30427       -0.00002
H         -0.08616       -2.18143        0.00002
H         -2.56087       -2.03334        0.00002
H         -3.66119        0.18537        0.00000
H         -2.28861        2.24434       -0.00002
H          0.16168        2.09444       -0.00002
H          3.59013        0.76600        0.00006
H          2.32497        1.65654       -0.87997
H          2.32491        1.65658        0.87997
