15
1_1.log	Energy: -170495.8448080
C          0.19461       -1.19793       -0.00904
C         -1.19562       -1.20113        0.00205
C         -1.89741       -0.00034        0.00855
C         -1.19639        1.20070        0.00205
C          0.19404        1.19830       -0.00903
C          0.91083        0.00047       -0.01200
C          2.41514        0.00019        0.00901
H          0.73357       -2.13838       -0.01738
H         -1.73158       -2.14236        0.00213
H         -2.98014       -0.00068        0.01413
H         -1.73284        2.14165        0.00213
H          0.73242        2.13903       -0.01738
H          2.78925       -0.02132        1.03707
H          2.81902        0.89480       -0.46694
H          2.81908       -0.87428       -0.50320
