16
20_1.log	Energy: -217709.7441292
C         -0.50058       -1.30019       -0.00001
C         -1.85059       -0.99122        0.00001
C         -2.27398        0.33712        0.00003
C         -1.32469        1.34893        0.00003
C          0.03764        1.05516        0.00002
C          0.45127       -0.27671       -0.00001
O          1.75194       -0.67407       -0.00003
C          2.76376        0.32589       -0.00003
H         -0.16102       -2.32798       -0.00002
H         -2.57872       -1.79291        0.00000
H         -3.32948        0.57525        0.00003
H         -1.63770        2.38576        0.00005
H          0.75720        1.86030        0.00003
H          2.70307        0.95362        0.89308
H          3.71109       -0.20898       -0.00003
H          2.70306        0.95363       -0.89312
