16
21_2.log	Energy: -420384.8008612
C         -0.32600        1.09145       -0.00000
C         -1.68904        1.37312       -0.00003
C         -2.62620        0.34881       -0.00002
C         -2.18817       -0.97340        0.00001
C         -0.83332       -1.26527        0.00006
C          0.11287       -0.23301        0.00007
S          1.81453       -0.71576       -0.00008
C          2.70780        0.85495        0.00008
H          0.38046        1.90844       -0.00009
H         -2.01385        2.40629       -0.00007
H         -3.68461        0.57444       -0.00002
H         -2.90613       -1.78409        0.00002
H         -0.50395       -2.29740        0.00016
H          2.49165        1.43775        0.89474
H          2.49155        1.43799       -0.89440
H          3.76473        0.58896       -0.00001
