15
25_1.log	Energy: -295099.8623181
C         -0.69533        1.28130       -0.00430
C         -2.07177        1.08092       -0.00259
C         -2.58309       -0.21060        0.00134
C         -1.71987       -1.30413        0.00366
C         -0.34724       -1.10704        0.00211
C          0.16603        0.18993       -0.00192
C          1.64182        0.41726       -0.00308
F          2.23349       -0.16553        1.09915
F          2.23470       -0.18345       -1.09483
H         -0.29073        2.28611       -0.00747
H         -2.74098        1.93155       -0.00440
H         -3.65408       -0.36865        0.00255
H         -2.11971       -2.30994        0.00664
H          0.32657       -1.95419        0.00385
H          1.92179        1.47003       -0.01140
