14
26_1.log	Energy: -274198.2751498
C          0.42834        1.21620        0.00014
C          1.81517        1.20739       -0.00005
C          2.50703       -0.00000       -0.00008
C          1.81517       -1.20739        0.00007
C          0.42834       -1.21620        0.00026
C         -0.24159        0.00000        0.00030
N         -1.70943        0.00000        0.00052
O         -2.28706        1.07877       -0.00040
O         -2.28706       -1.07877       -0.00056
H         -0.12825        2.14073        0.00017
H          2.35570        2.14426       -0.00017
H          3.58928        0.00000       -0.00023
H          2.35569       -2.14426        0.00005
H         -0.12825       -2.14073        0.00038
