18
27_1.log	Energy: -514828.5253068
C         -0.99396        1.21321       -0.04389
C         -2.38035        1.20701        0.03492
C         -3.07092       -0.00003        0.07576
C         -2.38030       -1.20705        0.03481
C         -0.99391       -1.21318       -0.04401
C         -0.31487        0.00003       -0.08155
S          1.46126        0.00006       -0.16382
C          1.96833       -0.00050        1.53982
O          1.89148        1.24948       -0.75816
O          1.89148       -1.24897       -0.75899
H         -0.44508        2.14352       -0.08845
H         -2.92094        2.14409        0.05867
H         -4.15176       -0.00006        0.13471
H         -2.92085       -2.14416        0.05848
H         -0.44501       -2.14348       -0.08869
H          1.58826       -0.89776        2.02484
H          3.05893       -0.00060        1.53819
H          1.58843        0.89655        2.02536
