18
27_2.log	Energy: -514828.5253376
C          0.99396        1.21324       -0.04401
C          2.38036        1.20707        0.03492
C          3.07091        0.00001        0.07582
C          2.38035       -1.20707        0.03495
C          0.99396       -1.21324       -0.04398
C          0.31491        0.00001       -0.08156
S         -1.46126       -0.00001       -0.16375
C         -1.96860        0.00007        1.53991
O         -1.89135       -1.24917       -0.75868
O         -1.89138        1.24910       -0.75877
H          0.44488        2.14346       -0.08861
H          2.92095        2.14414        0.05873
H          4.15176       -0.00000        0.13471
H          2.92095       -2.14413        0.05878
H          0.44488       -2.14345       -0.08858
H         -3.05921        0.00006        1.53815
H         -1.58866       -0.89710        2.02519
H         -1.58866        0.89730        2.02507
