17
29_1.log	Energy: -524900.6964723
C          1.01839        1.21708        0.00125
C          2.40731        1.17851        0.05510
C          3.07126       -0.04184        0.05729
C          2.35117       -1.23307        0.00477
C          0.96599       -1.20704       -0.04809
C          0.31229        0.02224       -0.04787
S         -1.45969        0.05455       -0.13092
N         -1.91743       -0.45757        1.36810
O         -1.86066        1.42578       -0.33320
O         -1.89987       -0.96961       -1.04695
H          0.48835        2.15848       -0.00951
H          2.96741        2.10367        0.09094
H          4.15266       -0.06785        0.09695
H          2.87043       -2.18242        0.00210
H          0.39850       -2.12642       -0.09321
H         -2.68164       -1.12230        1.32101
H         -2.09283        0.30231        2.01630
