17
29_2.log	Energy: -524901.8484887
C          0.99231        1.21427       -0.04229
C          2.37915        1.20219        0.03348
C          3.06617       -0.00655        0.06835
C          2.36944       -1.21011        0.02266
C          0.98328       -1.21063       -0.05461
C          0.30644        0.00496       -0.08302
S         -1.47041        0.01056       -0.13721
N         -2.00407       -0.08578        1.41498
O         -1.89443        1.29603       -0.62749
O         -1.89915       -1.20441       -0.78006
H          0.44796        2.14723       -0.08199
H          2.92238        2.13775        0.05862
H          4.14708       -0.01115        0.12476
H          2.90564       -2.14989        0.04013
H          0.43336       -2.14019       -0.10440
H         -1.78116       -0.96693        1.86497
H         -1.75217        0.71692        1.98147
