17
29_3.log	Energy: -524900.6964792
C         -0.96603        1.20706       -0.04815
C         -2.35122        1.23305        0.00478
C         -3.07127        0.04181        0.05735
C         -2.40729       -1.17852        0.05510
C         -1.01838       -1.21706        0.00119
C         -0.31230       -0.02220       -0.04793
S          1.45969       -0.05453       -0.13091
N          1.91745        0.45735        1.36818
O          1.86066       -1.42575       -0.33341
O          1.89993        0.96980       -1.04675
H         -0.39852        2.12642       -0.09331
H         -2.87049        2.18240        0.00214
H         -4.15268        0.06779        0.09708
H         -2.96737       -2.10370        0.09093
H         -0.48835       -2.15846       -0.00967
H          2.09268       -0.30264        2.01625
H          2.68168        1.12205        1.32117
