17
29_4.log	Energy: -524901.8484950
C         -0.98329       -1.21064        0.05460
C         -2.36944       -1.21011       -0.02266
C         -3.06618       -0.00655       -0.06834
C         -2.37915        1.20219       -0.03348
C         -0.99231        1.21427        0.04228
C         -0.30644        0.00496        0.08300
S          1.47041        0.01057        0.13721
N          2.00411       -0.08587       -1.41497
O          1.89442        1.29608        0.62742
O          1.89915       -1.20437        0.78015
H         -0.43336       -2.14020        0.10438
H         -2.90565       -2.14989       -0.04011
H         -4.14709       -0.01116       -0.12473
H         -2.92238        2.13776       -0.05862
H         -0.44796        2.14723        0.08198
H          1.75221        0.71681       -1.98151
H          1.78116       -0.96703       -1.86491
