14
2_2.log	Energy: -180567.9537020
C         -0.22046        1.20419       -0.00409
C          1.16716        1.19835        0.00331
C          1.87512        0.00000        0.00651
C          1.16716       -1.19835        0.00331
C         -0.22046       -1.20419       -0.00409
C         -0.93675       -0.00000       -0.00853
N         -2.32470        0.00000       -0.07387
H         -0.76199        2.14308       -0.00821
H          1.69990        2.14159        0.00822
H          2.95713        0.00000        0.01290
H          1.69990       -2.14159        0.00822
H         -0.76199       -2.14308       -0.00821
H         -2.77539        0.83820        0.26283
H         -2.77539       -0.83820        0.26283
