17
30_1.log	Energy: -502168.5805743
C          1.06926        1.22624       -0.01411
C          2.45807        1.18010       -0.01185
C          3.11300       -0.04577        0.00428
C          2.38099       -1.22998        0.01914
C          0.99427       -1.18961        0.01766
C          0.33247        0.04148       -0.00074
P         -1.45538        0.13021        0.00379
O         -1.83333       -0.62439       -1.34907
O         -1.97830       -0.93051        1.09038
O         -2.00294        1.48653        0.18121
H          0.55134        2.17576       -0.02461
H          3.02723        2.10068       -0.02215
H          4.19514       -0.08053        0.00681
H          2.89225       -2.18389        0.03331
H          0.42735       -2.11137        0.03314
H         -2.78649       -0.65394       -1.52791
H         -2.04795       -0.54781        1.97812
