21
31_1.log	Energy: -219860.8448815
C         -0.58533        1.06087        0.58710
C         -1.88171        1.25235        0.11993
C         -2.59642        0.18554       -0.41195
C         -2.00514       -1.07293       -0.46975
C         -0.71013       -1.25767       -0.00173
C          0.02095       -0.19422        0.53301
C          1.43914       -0.39932        0.99929
C          2.45494       -0.48712       -0.15183
C          2.56058        0.79140       -0.97533
H         -0.03453        1.89778        1.00005
H         -2.33291        2.23560        0.17256
H         -3.60616        0.33102       -0.77467
H         -2.55555       -1.91221       -0.87697
H         -0.25902       -2.24234       -0.04807
H          1.49623       -1.31977        1.58638
H          1.72442        0.42062        1.66371
H          3.43340       -0.73024        0.27248
H          2.18249       -1.32224       -0.80395
H          1.61174        1.03716       -1.45613
H          3.31397        0.69017       -1.75968
H          2.84460        1.64100       -0.34816
