21
31_3.log	Energy: -219860.9914501
C         -0.81348       -1.19802        0.20362
C         -2.16197       -1.20133       -0.13511
C         -2.84175       -0.00017       -0.30672
C         -2.16215        1.20118       -0.13528
C         -0.81371        1.19818        0.20342
C         -0.11878        0.00015        0.37762
C          1.35267        0.00024        0.69534
C          2.23167       -0.00022       -0.56276
C          3.72094        0.00001       -0.23800
H         -0.29131       -2.13838        0.33879
H         -2.68309       -2.14239       -0.26173
H         -3.89262       -0.00021       -0.56739
H         -2.68352        2.14208       -0.26205
H         -0.29166        2.13864        0.33847
H          1.59778       -0.87817        1.29893
H          1.59778        0.87908        1.29831
H          1.98312       -0.87622       -1.16919
H          1.98300        0.87525       -1.16992
H          4.32527       -0.00062       -1.14787
H          3.99733       -0.88197        0.34599
H          3.99733        0.88277        0.34479
