21
31_4.log	Energy: -219860.9913824
C         -0.81261        1.19746        0.20441
C         -2.16102        1.20209       -0.13418
C         -2.84182        0.00153       -0.30668
C         -2.16325       -1.20043       -0.13612
C         -0.81471       -1.19874        0.20251
C         -0.11883       -0.00146        0.37752
C          1.35267       -0.00286        0.69524
C          2.23182        0.00200       -0.56286
C          3.72111        0.00026       -0.23784
H         -0.28965        2.13727        0.34044
H         -2.68150        2.14360       -0.26009
H         -3.89269        0.00275       -0.56735
H         -2.68530       -2.14086       -0.26353
H         -0.29348       -2.13975        0.33688
H          1.59753       -0.88392        1.29506
H          1.59784        0.87329        1.30211
H          1.98311       -0.87118       -1.17319
H          1.98365        0.88040       -1.16592
H          3.99790        0.88104        0.34772
H          4.32559        0.00203       -1.14762
H          3.99683       -0.88375        0.34338
