21
31_5.log	Energy: -219860.8450026
C          0.71048        1.25782        0.00210
C          2.00549        1.07253        0.47001
C          2.59636       -0.18612        0.41184
C          1.88129       -1.25257       -0.12037
C          0.58493       -1.06056       -0.58743
C         -0.02095        0.19474       -0.53292
C         -1.43916        0.40044       -0.99897
C         -2.45479        0.48717        0.15243
C         -2.56056       -0.79223        0.97461
H          0.25967        2.24262        0.04870
H          2.55619        1.91152        0.87747
H          3.60606       -0.33201        0.77450
H          2.33219       -2.23595       -0.17333
H          0.03390       -1.89717       -1.00069
H         -1.72456       -0.41879       -1.66419
H         -1.49619        1.32153       -1.58504
H         -2.18201        1.32153        0.80539
H         -3.43330        0.73098       -0.27138
H         -2.84340       -1.64143        0.34636
H         -3.31491       -0.69215        1.75818
H         -1.61213       -1.03788        1.45626
