19
32_2.log	Energy: -219084.5608554
C          0.95853       -1.27181        0.02135
C          2.27049       -0.90347       -0.26204
C          2.63572        0.43705       -0.25196
C          1.68033        1.40627        0.04142
C          0.37176        1.03400        0.31991
C         -0.00552       -0.31024        0.31743
C         -1.43841       -0.70066        0.61054
C         -2.37945       -0.27066       -0.47811
C         -3.39956        0.56284       -0.31489
H          0.68036       -2.31922        0.01542
H          3.00612       -1.66528       -0.48873
H          3.65599        0.72616       -0.47036
H          1.95624        2.45351        0.05210
H         -0.36973        1.79329        0.53923
H         -1.75766       -0.25995        1.55847
H         -1.48908       -1.78722        0.72453
H         -2.17365       -0.67790       -1.46487
H         -4.04220        0.84205       -1.14137
H         -3.62976        0.99460        0.65368
