19
32_3.log	Energy: -219084.6404512
C         -0.53389        1.19945       -0.31423
C         -1.83928        1.20101        0.16399
C         -2.49591       -0.00138        0.40352
C         -1.83807       -1.20236        0.16005
C         -0.53271       -1.19794       -0.31815
C          0.13566        0.00151       -0.56317
C          1.56200        0.00295       -1.04269
C          2.60012       -0.00019        0.04928
C          2.37245       -0.00291        1.35676
H         -0.02557        2.13921       -0.49623
H         -2.34437        2.14116        0.34827
H         -3.51328       -0.00251        0.77395
H         -2.34224       -2.14360        0.34125
H         -0.02344       -2.13658       -0.50322
H          1.73889        0.87715       -1.67806
H          1.73897       -0.86743       -1.68326
H          3.62713       -0.00001       -0.30727
H          3.19193       -0.00489        2.06540
H          1.36969       -0.00328        1.76705
