19
32_4.log	Energy: -219084.5608661
C          0.95842        1.27181       -0.02139
C          2.27037        0.90355        0.26213
C          2.63569       -0.43695        0.25209
C          1.68041       -1.40623       -0.04139
C          0.37184       -1.03405       -0.32001
C         -0.00553        0.31016       -0.31757
C         -1.43843        0.70045       -0.61078
C         -2.37941        0.27079        0.47805
C         -3.39948       -0.56284        0.31518
H          0.68017        2.31920       -0.01548
H          3.00593        1.66541        0.48889
H          3.65597       -0.72598        0.47059
H          1.95639       -2.45345       -0.05203
H         -0.36957       -1.79338       -0.53942
H         -1.75770        0.25942       -1.55856
H         -1.48914        1.78697       -0.72513
H         -2.17359        0.67838        1.46465
H         -4.04205       -0.84178        1.14180
H         -3.62971       -0.99495       -0.65322
