24
33_2.log	Energy: -244543.5320136
C          0.93724        1.19722        0.34085
C          2.21054        1.20084       -0.21712
C          2.85198        0.00023       -0.50171
C          2.21090       -1.20054       -0.21705
C          0.93759       -1.19725        0.34092
C          0.27610       -0.00011        0.62359
C         -1.11663       -0.00033        1.19866
C         -2.26241       -0.00017        0.15775
C         -2.26331        1.25796       -0.70852
C         -2.26284       -1.25782       -0.70924
H          0.44922        2.13801        0.56500
H          2.70390        2.14224       -0.42582
H          3.84493        0.00037       -0.93345
H          2.70453       -2.14182       -0.42570
H          0.44982       -2.13817        0.56511
H         -1.23920       -0.87880        1.83726
H         -1.23933        0.87777        1.83774
H         -3.18811       -0.00051        0.74330
H         -1.37457        1.30497       -1.34155
H         -3.13700        1.27111       -1.36444
H         -2.28966        2.16432       -0.09876
H         -3.13636       -1.27079       -1.36540
H         -1.37393       -1.30428       -1.34206
H         -2.28915       -2.16452       -0.09999
