24
34_1.log	Energy: -244543.3574204
C         -0.91961        0.38465        1.19884
C         -2.27931        0.56930        0.96703
C         -2.84221        0.16261       -0.23635
C         -2.03400       -0.42918       -1.20278
C         -0.67771       -0.61141       -0.96467
C         -0.09820       -0.20784        0.24090
C          1.38200       -0.39971        0.50022
C          1.76858       -1.88218        0.47756
C          2.25041        0.40699       -0.48002
C          2.01360        1.91158       -0.42104
H         -0.48690        0.70768        2.13857
H         -2.89691        1.03243        1.72682
H         -3.89946        0.30502       -0.42152
H         -2.46237       -0.74930       -2.14477
H         -0.06207       -1.07131       -1.72797
H          1.58303       -0.01638        1.50555
H          1.61079       -2.31641       -0.51231
H          2.82332       -2.00796        0.73307
H          1.17469       -2.45538        1.19222
H          3.30023        0.19351       -0.25751
H          2.07171        0.04405       -1.49692
H          2.19358        2.29860        0.58566
H          2.68135        2.44048       -1.10469
H          0.98774        2.16615       -0.69436
