24
34_2.log	Energy: -244542.6249801
C         -1.13294        1.22368        0.35998
C         -2.50124        1.13557        0.12293
C         -3.05969       -0.06556       -0.29690
C         -2.23821       -1.17446       -0.47631
C         -0.87279       -1.08038       -0.23751
C         -0.29721        0.12099        0.18465
C          1.19264        0.23483        0.43204
C          1.66372       -0.75743        1.50120
C          1.97648        0.09050       -0.88591
C          3.46989        0.37482       -0.75948
H         -0.70496        2.16417        0.68766
H         -3.12964        2.00591        0.26730
H         -4.12395       -0.13872       -0.48225
H         -2.66299       -2.11581       -0.80304
H         -0.24845       -1.95344       -0.38139
H          1.37735        1.24516        0.81060
H          1.07039       -0.65591        2.41191
H          1.56909       -1.78865        1.15292
H          2.70888       -0.58825        1.76374
H          1.82635       -0.91925       -1.28035
H          1.54123        0.77474       -1.61957
H          3.97193       -0.35284       -0.11961
H          3.95400        0.33923       -1.73799
H          3.64686        1.36830       -0.33810
