24
34_5.log	Energy: -244539.9830993
C         -0.61108       -1.09622       -0.11032
C         -1.94355       -1.43852        0.10755
C         -2.91808       -0.45385        0.19130
C         -2.54683        0.87969        0.04720
C         -1.21703        1.21452       -0.16659
C         -0.21860        0.23608       -0.24341
C          1.22066        0.66849       -0.49538
C          1.70667        1.63956        0.59122
C          2.22181       -0.48031       -0.70715
C          2.68242       -1.21222        0.55450
H          0.11977       -1.88844       -0.18051
H         -2.21578       -2.48200        0.20956
H         -3.95406       -0.71939        0.36015
H         -3.29582        1.66060        0.09748
H         -0.95049        2.25764       -0.28634
H          1.20088        1.23139       -1.43533
H          2.73691        1.94678        0.39595
H          1.09326        2.53990        0.62440
H          1.67039        1.17871        1.57957
H          1.79960       -1.19553       -1.41751
H          3.10345       -0.05850       -1.19794
H          3.29421       -2.07723        0.28853
H          3.29129       -0.56676        1.18959
H          1.84803       -1.57046        1.15901
