24
34_6.log	Energy: -244539.9830698
C          0.61118        1.09622       -0.11095
C          1.94366        1.43843        0.10700
C          2.91802        0.45366        0.19136
C          2.54658       -0.87989        0.04782
C          1.21680       -1.21463       -0.16605
C          0.21852       -0.23607       -0.24353
C         -1.22077       -0.66822       -0.49571
C         -1.70697       -1.64000        0.59011
C         -2.22176        0.48087       -0.70662
C         -2.68173        1.21236        0.55542
H         -0.11956        1.88851       -0.18160
H          2.21600        2.48192        0.20862
H          3.95400        0.71909        0.36030
H          3.29546       -1.66088        0.09863
H          0.95013       -2.25776       -0.28532
H         -1.20110       -1.23038       -1.43610
H         -2.73739       -1.94656        0.39478
H         -1.09403       -2.54069        0.62247
H         -1.67034       -1.18005        1.57888
H         -1.79968        1.19630       -1.41686
H         -3.10366        0.05944       -1.19731
H         -1.84707        1.57093        1.15938
H         -3.29413        2.07714        0.29006
H         -3.28983        0.56658        1.19093
