16
35_1.log	Energy: -228403.0528512
C          0.52693        1.20263        0.24089
C          1.84760        1.20242       -0.19229
C          2.50989       -0.00074       -0.40982
C          1.84677       -1.20322       -0.19098
C          0.52611       -1.20206        0.24220
C         -0.14056        0.00064        0.46085
C         -1.58622        0.00139        0.92026
C         -2.52097       -0.00020       -0.20081
N         -3.24845       -0.00116       -1.09183
H          0.01218        2.14091        0.40886
H          2.35895        2.14206       -0.35851
H          3.53864       -0.00128       -0.74667
H          2.35747       -2.14339       -0.35619
H          0.01072       -2.13982        0.41117
H         -1.79800        0.88208        1.52991
H         -1.79817       -0.87752        1.53239
