23
36_1.log	Energy: -254598.3099112
C         -0.92043       -1.19837        0.33313
C         -2.19860       -1.20181       -0.21373
C         -2.84080        0.00001       -0.49201
C         -2.19859        1.20182       -0.21374
C         -0.92041        1.19838        0.33311
C         -0.26048        0.00000        0.60990
C          1.15269       -0.00000        1.15623
N          2.22784       -0.00002        0.15733
C          2.27027        1.20234       -0.65636
C          2.27021       -1.20236       -0.65639
H         -0.43006       -2.13867        0.55546
H         -2.69542       -2.14223       -0.41818
H         -3.83738        0.00001       -0.91532
H         -2.69540        2.14225       -0.41821
H         -0.43004        2.13868        0.55544
H          1.29516       -0.88124        1.78558
H          1.29518        0.88122        1.78560
H          3.18431        1.19914       -1.25392
H          2.28694        2.08480       -0.01398
H          1.41883        1.29875       -1.34822
H          3.18424       -1.19919       -1.25396
H          2.28683       -2.08483       -0.01404
H          1.41875       -1.29870       -1.34824
