23
36_2.log	Energy: -254598.9376114
C         -0.88069       -1.16219       -0.16247
C         -2.21254       -1.31257        0.19945
C         -3.04634       -0.19981        0.27962
C         -2.53594        1.06107       -0.00209
C         -1.19884        1.20694       -0.36129
C         -0.35809        0.10049       -0.44812
C          1.08798        0.25381       -0.84922
N          2.01650       -0.28063        0.14438
C          1.96822        0.47041        1.38868
C          3.36961       -0.33190       -0.38297
H         -0.23159       -2.02736       -0.21587
H         -2.60372       -2.29873        0.41752
H         -4.08521       -0.31711        0.56145
H         -3.17525        1.93292        0.06151
H         -0.80156        2.19288       -0.57238
H          1.29424        1.31758       -1.05753
H          1.26158       -0.28988       -1.78167
H          2.64153        0.01644        2.11724
H          0.95938        0.45407        1.80056
H          2.26696        1.52518        1.25586
H          4.03638       -0.78072        0.35519
H          3.39428       -0.94493       -1.28556
H          3.76723        0.66661       -0.63655
