20
37_1.log	Energy: -229927.9817581
C          1.01733       -1.29590        0.11066
C          2.31645       -0.86118        0.31156
C          2.64585        0.48670        0.18110
C          1.64186        1.38750       -0.15412
C          0.33348        0.96540       -0.35696
C         -0.00329       -0.39182       -0.23396
N         -1.27656       -0.86936       -0.48104
C         -2.45721       -0.02083       -0.48254
C         -2.85263        0.51645        0.89083
H          0.77411       -2.34759        0.21282
H          3.08038       -1.58261        0.57561
H          3.66124        0.82478        0.34028
H          1.87365        2.44096       -0.25654
H         -0.42428        1.69300       -0.61050
H         -1.43787       -1.80425       -0.13790
H         -2.29732        0.80415       -1.17931
H         -3.27404       -0.61520       -0.89539
H         -3.74564        1.14163        0.81413
H         -2.05400        1.11793        1.32778
H         -3.07127       -0.30532        1.57682
