20
37_2.log	Energy: -229928.3728333
C          0.57843        1.08276       -0.05588
C          1.94967        1.30931       -0.00588
C          2.85148        0.25399        0.04528
C          2.35690       -1.04993        0.04625
C          0.99518       -1.29106       -0.00668
C          0.07607       -0.22770       -0.06445
N         -1.27418       -0.49837       -0.15930
C         -2.28747        0.51218        0.08966
C         -3.67349       -0.10462        0.02914
H         -0.09890        1.92416       -0.09074
H          2.31218        2.33033       -0.00270
H          3.91672        0.43932        0.08603
H          3.04132       -1.88862        0.09045
H          0.62172       -2.30893       -0.00884
H         -1.53346       -1.42956        0.13063
H         -2.13421        0.99438        1.06527
H         -2.20234        1.29634       -0.66735
H         -3.85686       -0.55702       -0.94778
H         -4.43540        0.65654        0.20257
H         -3.79216       -0.87786        0.79290
