20
37_3.log	Energy: -229928.3728346
C          0.99518       -1.29104       -0.00659
C          2.35691       -1.04993        0.04621
C          2.85151        0.25397        0.04515
C          1.94969        1.30930       -0.00598
C          0.57846        1.08277       -0.05588
C          0.07607       -0.22769       -0.06438
N         -1.27418       -0.49834       -0.15916
C         -2.28751        0.51212        0.09009
C         -3.67352       -0.10458        0.02873
H          0.62173       -2.30892       -0.00864
H          3.04130       -1.88864        0.09042
H          3.91675        0.43931        0.08579
H          2.31220        2.33033       -0.00286
H         -0.09886        1.92419       -0.09069
H         -1.53341       -1.42962        0.13053
H         -2.13454        0.99374        1.06602
H         -2.20210        1.29670       -0.66644
H         -3.79238       -0.87853        0.79175
H         -3.85673       -0.55609       -0.94864
H         -4.43546        0.65642        0.20272
