19
38_2.log	Energy: -242388.0727299
C         -0.76757        1.20121        0.18987
C         -2.11903        1.20280       -0.13492
C         -2.79669       -0.00103       -0.29729
C         -2.11759       -1.20391       -0.13380
C         -0.76617       -1.20043        0.19102
C         -0.07836        0.00089        0.35624
C          1.38834        0.00182        0.67182
O          2.12665       -0.00108       -0.54715
C          3.52385       -0.00049       -0.32384
H         -0.23996        2.13920        0.31661
H         -2.64370        2.14187       -0.25911
H         -3.85020       -0.00177       -0.54734
H         -2.64116       -2.14371       -0.25710
H         -0.23747       -2.13767        0.31868
H          1.65370       -0.88342        1.26395
H          1.65348        0.88997        1.25966
H          4.00931       -0.00258       -1.29952
H          3.84115       -0.89002        0.23534
H          3.84103        0.89154        0.23144
