19
38_4.log	Energy: -242388.0677858
C          0.74010        1.18538        0.21107
C          2.09114        1.22403       -0.11180
C          2.79715        0.03911       -0.29495
C          2.14608       -1.18174       -0.15490
C          0.79381       -1.21543        0.16682
C          0.07846       -0.03388        0.35353
C         -1.38817       -0.07003        0.66826
O         -2.12760        0.04374       -0.54433
C         -3.52415        0.01741       -0.32205
H          0.19083        2.10843        0.35443
H          2.59433        2.17705       -0.21765
H          3.85078        0.06764       -0.54302
H          2.69118       -2.10688       -0.29495
H          0.28649       -2.16681        0.27514
H         -1.65700        0.75597        1.33957
H         -1.64826       -1.00951        1.17221
H         -3.84401        0.84631        0.32258
H         -3.83941       -0.92572        0.14277
H         -4.01065        0.11453       -1.29241
