20
39_2.log	Energy: -266327.4796921
C         -0.57549       -1.07705       -0.34430
C         -1.91630       -1.41657       -0.21658
C         -2.85275       -0.44425        0.11430
C         -2.44544        0.87211        0.31698
C         -1.10840        1.21091        0.18848
C         -0.15625        0.24126       -0.14403
C          1.27381        0.65834       -0.27017
O          1.58513        1.83264       -0.15930
C          2.34094       -0.39082       -0.49306
C          2.70794       -1.10183        0.81643
H          0.13767       -1.84622       -0.60340
H         -2.22939       -2.44045       -0.37575
H         -3.89762       -0.71002        0.21394
H         -3.17295        1.63102        0.57509
H         -0.77910        2.22922        0.34321
H          3.21454        0.12598       -0.88995
H          2.01551       -1.12092       -1.23547
H          3.50652       -1.82410        0.64011
H          3.05954       -0.38299        1.55880
H          1.85583       -1.63525        1.23960
