20
39_3.log	Energy: -266328.3615387
C          0.79930       -1.17309       -0.00012
C          2.17364       -1.37406       -0.00008
C          3.03724       -0.28464        0.00008
C          2.52299        1.00941        0.00021
C          1.15184        1.21000        0.00014
C          0.27349        0.12198       -0.00004
C         -1.19874        0.38839       -0.00018
O         -1.61888        1.53209       -0.00040
C         -2.14675       -0.79164       -0.00013
C         -3.61443       -0.39782        0.00043
H          0.14198       -2.03109       -0.00021
H          2.57016       -2.38128       -0.00019
H          4.10835       -0.44272        0.00009
H          3.19357        1.85932        0.00038
H          0.74004        2.20987        0.00022
H         -1.91034       -1.41175        0.87043
H         -1.91101       -1.41136       -0.87113
H         -4.24310       -1.28997        0.00119
H         -3.86466        0.19602        0.88038
H         -3.86554        0.19501       -0.87996
