20
39_4.log	Energy: -266327.4796532
C         -0.57541       -1.07725       -0.34350
C         -1.91621       -1.41681       -0.21598
C         -2.85284       -0.44437        0.11411
C         -2.44570        0.87209        0.31626
C         -1.10862        1.21094        0.18800
C         -0.15636        0.24121       -0.14375
C          1.27374        0.65844       -0.26980
O          1.58496        1.83269       -0.15829
C          2.34090       -0.39047       -0.49354
C          2.70856       -1.10180        0.81557
H          0.13792       -1.84646       -0.60193
H         -2.22921       -2.44078       -0.37472
H         -3.89771       -0.71017        0.21351
H         -3.17333        1.63108        0.57378
H         -0.77953        2.22936        0.34232
H          3.21427        0.12661       -0.89061
H          2.01531       -1.12037       -1.23607
H          1.85659       -1.63513        1.23916
H          3.50684       -1.82426        0.63866
H          3.06076       -0.38323        1.55790
