20
39_5.log	Energy: -266327.4796871
C         -0.57543        1.07713       -0.34391
C         -1.91625        1.41668       -0.21634
C         -2.85279        0.44432        0.11415
C         -2.44556       -0.87209        0.31665
C         -1.10851       -1.21092        0.18830
C         -0.15628       -0.24125       -0.14386
C          1.27378       -0.65841       -0.26997
O          1.58505       -1.83270       -0.15883
C          2.34098        0.39058       -0.49326
C          2.70814        1.10194        0.81600
H          0.13782        1.84632       -0.60262
H         -2.22928        2.44061       -0.37535
H         -3.89767        0.71007        0.21363
H         -3.17315       -1.63100        0.57451
H         -0.77930       -2.22928        0.34289
H          2.01558        1.12050       -1.23585
H          3.21452       -0.12641       -0.89006
H          3.50672        1.82413        0.63938
H          1.85608        1.63552        1.23907
H          3.05977        0.38331        1.55855
