20
39_6.log	Energy: -266327.4796858
C         -1.10851        1.21092       -0.18825
C         -2.44557        0.87209       -0.31662
C         -2.85280       -0.44430       -0.11416
C         -1.91626       -1.41668        0.21631
C         -0.57544       -1.07714        0.34389
C         -0.15629        0.24124        0.14388
C          1.27379        0.65841        0.26997
O          1.58507        1.83269        0.15877
C          2.34098       -0.39058        0.49327
C          2.70815       -1.10193       -0.81597
H         -0.77931        2.22928       -0.34281
H         -3.17314        1.63104       -0.57446
H         -3.89767       -0.71008       -0.21366
H         -2.22930       -2.44061        0.37529
H          0.13779       -1.84634        0.60261
H          2.01557       -1.12049        1.23586
H          3.21452        0.12640        0.89009
H          3.50671       -1.82415       -0.63936
H          1.85609       -1.63548       -1.23907
H          3.05981       -0.38331       -1.55851
