13
3_1.log	Energy: -193038.0519099
C          0.21526       -1.22145        0.00001
C         -1.17235       -1.18290       -0.00001
C         -1.85030        0.03325       -0.00001
C         -1.12235        1.21779       -0.00001
C          0.26748        1.19271        0.00000
C          0.93646       -0.02922        0.00001
O          2.29807       -0.11320        0.00000
H          0.75068       -2.16221        0.00002
H         -1.72820       -2.11226       -0.00001
H         -2.93213        0.05627       -0.00003
H         -1.63543        2.17134       -0.00001
H          0.83587        2.11588        0.00001
H          2.67948        0.77552        0.00006
