19
40_1.log	Energy: -242394.5155931
C          1.02694       -1.29918        0.11547
C          2.32844       -0.84578        0.25575
C          2.62365        0.51027        0.12992
C          1.59410        1.40162       -0.13833
C          0.28058        0.96112       -0.28157
C         -0.00740       -0.39857       -0.15644
O         -1.24396       -0.94793       -0.29450
C         -2.38279       -0.10393       -0.51192
C         -2.88648        0.53172        0.76873
H          0.78782       -2.35073        0.20969
H          3.11842       -1.55656        0.46456
H          3.64038        0.86345        0.24124
H          1.80516        2.45940       -0.23671
H         -0.49879        1.67990       -0.48462
H         -3.13698       -0.77406       -0.92415
H         -2.15355        0.64424       -1.27451
H         -3.78793        1.11194        0.55815
H         -3.13743       -0.23780        1.50097
H         -2.14768        1.20008        1.21173
