19
40_2.log	Energy: -242395.6587635
C         -0.54260        1.08510       -0.00007
C         -1.91864        1.30448        0.00001
C         -2.81195        0.24279        0.00008
C         -2.31683       -1.06046        0.00006
C         -0.95193       -1.29541       -0.00001
C         -0.05563       -0.22235       -0.00008
O          1.26346       -0.54853       -0.00019
C          2.23471        0.50294        0.00003
C          3.60285       -0.13512        0.00013
H          0.13195        1.92800       -0.00012
H         -2.28717        2.32293        0.00002
H         -3.87882        0.42360        0.00014
H         -3.00029       -1.90057        0.00011
H         -0.55728       -2.30337       -0.00002
H          2.09446        1.12902        0.88678
H          2.09469        1.12919       -0.88665
H          3.74211       -0.75661       -0.88621
H          4.37075        0.64101        0.00024
H          3.74194       -0.75672        0.88641
