22
41_2.log	Energy: -267076.5846604
C         -0.88360        1.20527        0.30439
C         -2.18203        1.20224       -0.19204
C         -2.83458        0.00058       -0.44644
C         -2.18299       -1.20146       -0.19139
C         -0.88455       -1.20523        0.30502
C         -0.22805       -0.00018        0.54621
O          1.02830       -0.00064        1.10464
C          2.18460       -0.00063        0.21937
C          2.25603       -1.26272       -0.62300
C          2.25766        1.26279       -0.62088
H         -0.37455        2.13543        0.51736
H         -2.68629        2.14289       -0.37550
H         -3.84679        0.00089       -0.82988
H         -2.68798       -2.14182       -0.37437
H         -0.37617       -2.13566        0.51844
H          3.01205       -0.00174        0.93042
H          3.20372       -1.28378       -1.16522
H          2.20261       -2.15423        0.00328
H          1.44979       -1.30074       -1.35756
H          2.20507        2.15330        0.00689
H          3.20553        1.28370       -1.16281
H          1.45168        1.30293       -1.35561
