19
42_1.log	Energy: -276414.1193905
C          0.92181       -1.19934        0.32340
C          2.23893       -1.20300       -0.12071
C          2.90227       -0.00164       -0.34685
C          2.24077        1.20128       -0.12372
C          0.92362        1.20073        0.32038
C          0.24700        0.00150        0.54961
C         -1.18988        0.00305        0.99243
C         -2.25458       -0.00007       -0.10460
N         -1.81969       -0.00145       -1.37982
O         -3.44399       -0.00098        0.18887
H          0.40913       -2.13786        0.49867
H          2.74836       -2.14398       -0.28680
H          3.92905       -0.00285       -0.68993
H          2.75164        2.14107       -0.29213
H          0.41236        2.14046        0.49334
H         -1.40317        0.87986        1.60690
H         -1.40347       -0.86995        1.61218
H         -2.49444       -0.00315       -2.12854
H         -0.83928       -0.00071       -1.60554
