19
42_2.log	Energy: -276414.1195085
C         -0.91868       -1.19712        0.32792
C         -2.23574       -1.20595       -0.11617
C         -2.90230       -0.00719       -0.34679
C         -2.24399        1.19828       -0.12821
C         -0.92677        1.20290        0.31577
C         -0.24701        0.00638        0.54954
C          1.18986        0.01305        0.99233
C          2.25461       -0.00024       -0.10459
N          1.81977       -0.00474       -1.37981
O          3.44398       -0.00508        0.18898
H         -0.40351       -2.13363        0.50668
H         -2.74266       -2.14890       -0.27875
H         -3.92908       -0.01244       -0.68980
H         -2.75738        2.13608       -0.30008
H         -0.41800        2.14462        0.48520
H          1.40401       -0.85364        1.62063
H          1.40256        0.89605        1.59815
H          2.49453       -0.01296       -2.12848
H          0.83937       -0.00204       -1.60556
