19
43_2.log	Energy: -276408.3496104
C          0.78827       -1.16465       -0.20002
C          2.16390       -1.35172       -0.14893
C          3.00794       -0.26768        0.06435
C          2.47168        1.00726        0.21554
C          1.09830        1.19603        0.15438
C          0.24338        0.11133       -0.04376
C         -1.23048        0.38045       -0.10334
O         -1.67067        1.48896       -0.40266
N         -2.04584       -0.65537        0.18900
C         -3.48843       -0.51549        0.18410
H          0.14877       -2.01629       -0.39311
H          2.57637       -2.34364       -0.28261
H          4.07966       -0.41517        0.10622
H          3.12516        1.85483        0.37845
H          0.67078        2.18365        0.26030
H         -1.64997       -1.50493        0.55364
H         -3.93230       -1.49366        0.35800
H         -3.83183       -0.13536       -0.77835
H         -3.82777        0.17324        0.96178
