19
43_5.log	Energy: -276404.5988714
C         -0.54653        0.93252        0.63565
C         -1.90052        1.23580        0.55918
C         -2.77794        0.35596       -0.06438
C         -2.30093       -0.83853       -0.59566
C         -0.95272       -1.15364       -0.49859
C         -0.06442       -0.26412        0.10606
C          1.37011       -0.67294        0.24442
O          1.65865       -1.80526        0.63154
N          2.33021        0.23297       -0.05121
C          2.19965        1.51093       -0.73039
H          0.12980        1.61891        1.12735
H         -2.26965        2.15891        0.98766
H         -3.83139        0.59678       -0.13082
H         -2.98180       -1.52800       -1.07835
H         -0.57815       -2.09085       -0.88837
H          3.26852       -0.10525        0.10891
H          1.27511        1.54736       -1.30097
H          3.03223        1.62606       -1.42467
H          2.21437        2.35140       -0.03229
