19
44_2.log	Energy: -276411.0739427
C          1.22973       -1.32711       -0.00829
C          2.58933       -1.05988       -0.00957
C          3.04688        0.25432        0.00037
C          2.12318        1.29177        0.01208
C          0.75569        1.03994        0.01428
C          0.29976       -0.28106        0.00397
N         -1.05911       -0.63697        0.00463
C         -2.16931        0.15954       -0.01071
C         -3.47926       -0.59250        0.01346
O         -2.13243        1.38154       -0.02886
H          0.87849       -2.35278       -0.01870
H          3.29314       -1.88257       -0.01931
H          4.10844        0.46455       -0.00132
H          2.46469        2.31938        0.01974
H          0.04582        1.84953        0.02254
H         -1.23484       -1.62962        0.01939
H         -3.36822       -1.66303       -0.15662
H         -4.13807       -0.17236       -0.74632
H         -3.95226       -0.43682        0.98552
