19
44_3.log	Energy: -276408.7694958
C         -0.70337        0.95539       -0.47056
C         -2.04481        1.27871       -0.30738
C         -2.95994        0.31772        0.10614
C         -2.52202       -0.97865        0.35674
C         -1.18050       -1.30421        0.21642
C         -0.25928       -0.33664       -0.19021
N          1.08817       -0.72342       -0.35369
C          2.24783       -0.09069        0.00227
C          2.16985        1.23744        0.70776
O          3.32447       -0.62286       -0.24229
H         -0.01064        1.69962       -0.83491
H         -2.37636        2.28627       -0.52428
H         -4.00496        0.57335        0.22297
H         -3.22483       -1.73897        0.67287
H         -0.83534       -2.30903        0.42685
H          1.24087       -1.66246       -0.69784
H          1.28269        1.33461        1.33109
H          2.16290        2.04664       -0.02535
H          3.06606        1.34240        1.31572
