18
45_2.log	Energy: -288875.1817030
C         -0.74604        1.17296        0.00002
C         -2.11941        1.37410       -0.00005
C         -2.98475        0.28490       -0.00003
C         -2.47495       -1.01000        0.00003
C         -1.10336       -1.21499        0.00002
C         -0.23109       -0.12518        0.00006
C          1.23066       -0.39546        0.00004
O          1.72031       -1.50398       -0.00008
O          1.96449        0.72757        0.00009
C          3.39194        0.55560       -0.00004
H         -0.07322        2.01817        0.00001
H         -2.51517        2.38153       -0.00011
H         -4.05553        0.44506       -0.00005
H         -3.14708       -1.85840        0.00003
H         -0.69378       -2.21564        0.00004
H          3.71121        0.01434       -0.89017
H          3.71132        0.01416        0.88993
H          3.80568        1.56059        0.00002
