18
46_2.log	Energy: -288875.0617308
C         -0.88547        1.19252        0.28497
C         -2.24326        1.20981       -0.01290
C         -2.93406        0.01781       -0.20474
C         -2.26530       -1.19699       -0.09803
C         -0.90732       -1.22500        0.19889
C         -0.23763       -0.02744        0.38624
O          1.11254       -0.05626        0.74976
C          2.04503        0.01769       -0.24184
C          3.42662       -0.03516        0.33068
O          1.75906        0.10862       -1.40634
H         -0.33141        2.10932        0.43727
H         -2.76015        2.15721       -0.09545
H         -3.99125        0.03566       -0.43569
H         -2.79908       -2.12683       -0.24658
H         -0.36957       -2.15986        0.28564
H          3.56728       -0.97829        0.86207
H          3.56055        0.77183        1.05279
H          4.15922        0.05272       -0.46700
