18
46_3.log	Energy: -288875.0616962
C         -0.88574       -1.19288       -0.28416
C         -2.24353       -1.20967        0.01372
C         -2.93406       -0.01740        0.20478
C         -2.26506        1.19718        0.09722
C         -0.90708        1.22471       -0.19975
C         -0.23768        0.02687       -0.38625
O          1.11257        0.05507       -0.74984
C          2.04504       -0.01738        0.24187
C          3.42662        0.03456       -0.33075
O          1.75912       -0.10658        1.40652
H         -0.33188       -2.10990       -0.43586
H         -2.76064       -2.15689        0.09690
H         -3.99126       -0.03488        0.43575
H         -2.79864        2.12724        0.24513
H         -0.36915        2.15939       -0.28716
H          3.56717        0.97665       -0.86400
H          3.56063       -0.77380       -1.05132
H          4.15925       -0.05173        0.46706
