16
47_1.log	Energy: -342321.5615738
C          0.44986        0.94362       -0.00026
C          1.75792        1.42000        0.00003
C          2.83761        0.54697        0.00021
C          2.60761       -0.82504        0.00011
C          1.31039       -1.31686       -0.00016
C          0.24162       -0.42949       -0.00033
O         -1.00953       -1.04708       -0.00067
C         -2.17073       -0.35296        0.00002
F         -2.28272        0.46483       -1.09201
F         -2.28207        0.46377        1.09286
H         -0.37401        1.63935       -0.00042
H          1.92441        2.48958        0.00009
H          3.84919        0.93085        0.00042
H          3.43912       -1.51799        0.00024
H          1.11241       -2.38036       -0.00023
H         -2.99741       -1.05975       -0.00011
