16
47_2.log	Energy: -342321.9906811
C         -0.82768       -1.21045        0.29362
C         -2.14128       -1.20418       -0.16183
C         -2.79785        0.00009       -0.39201
C         -2.14117        1.20433       -0.16202
C         -0.82757        1.21054        0.29342
C         -0.18837        0.00003        0.50882
O          1.11463        0.00008        1.03677
C          2.15681       -0.00028        0.17026
F          2.12969        1.08751       -0.65973
F          2.12874       -1.08760       -0.66016
H         -0.30295       -2.13674        0.48288
H         -2.65062       -2.14344       -0.33469
H         -3.82081        0.00010       -0.74538
H         -2.65042        2.14361       -0.33503
H         -0.30271        2.13679        0.48251
H          3.08727       -0.00075        0.73297
