16
47_3.log	Energy: -342322.5089343
C         -1.25881       -1.31053       -0.18203
C         -2.60652       -1.00317       -0.06186
C         -3.01416        0.31383        0.13091
C         -2.06340        1.32397        0.19152
C         -0.70811        1.03381        0.06014
C         -0.32063       -0.28842       -0.11589
O          1.00434       -0.67666       -0.26990
C          1.98266        0.08657        0.28723
F          2.36716        1.08367       -0.57126
F          3.06236       -0.71342        0.44455
H         -0.92325       -2.32911       -0.32443
H         -3.33959       -1.79787       -0.11345
H         -4.06572        0.54979        0.22737
H         -2.37015        2.35259        0.33093
H          0.02029        1.83201        0.07626
H          1.71169        0.53720        1.24279
