18
48_1.log	Energy: -382094.9310322
C          1.21935       -1.20149        0.32686
C          2.53042       -1.20225       -0.13374
C          3.18841        0.00048       -0.36626
C          2.52967        1.20273       -0.13331
C          1.21862        1.20101        0.32730
C          0.55103       -0.00049        0.56034
C         -0.87650       -0.00104        1.04296
C         -1.88688       -0.00002       -0.08048
F         -1.77753       -1.08284       -0.88126
F         -3.15292       -0.00072        0.40106
F         -1.77786        1.08453       -0.87899
H          0.71057       -2.14044        0.50787
H          3.03827       -2.14222       -0.30916
H          4.21034        0.00086       -0.72357
H          3.03695        2.14306       -0.30840
H          0.70928        2.13960        0.50866
H         -1.08772        0.88091        1.64855
H         -1.08758       -0.88420        1.64684
