18
48_2.log	Energy: -382094.9313020
C          1.21982       -1.20154       -0.32708
C          2.53075       -1.20216        0.13401
C          3.18857        0.00060        0.36678
C          2.52983        1.20277        0.13349
C          1.21892        1.20096       -0.32763
C          0.55131       -0.00061       -0.56056
C         -0.87651       -0.00127       -1.04334
C         -1.88723       -0.00002        0.08025
F         -1.77788       -1.08276        0.88132
F         -1.77829        1.08480        0.87857
F         -3.15322       -0.00087       -0.40032
H          0.71117       -2.14051       -0.50819
H          3.03865       -2.14207        0.30958
H          4.21045        0.00106        0.72420
H          3.03702        2.14313        0.30868
H          0.70956        2.13946       -0.50915
H         -1.08747       -0.88437       -1.64740
H         -1.08763        0.88040       -1.64944
