20
49_1.log	Energy: -549584.4102395
C         -1.69141       -1.31976       -0.15363
C         -3.01416       -1.03033        0.15168
C         -3.43973        0.29024        0.24519
C         -2.53166        1.31753        0.01444
C         -1.21068        1.04016       -0.31476
C         -0.78551       -0.28567       -0.39138
N          0.54761       -0.62270       -0.74334
S          1.88858        0.06649       -0.05562
C          1.72078       -0.18677        1.69259
O          2.99559       -0.71887       -0.53977
O          1.85140        1.48436       -0.30029
H         -1.35462       -2.34793       -0.21284
H         -3.71013       -1.84106        0.32562
H         -4.46930        0.51597        0.49005
H         -2.85379        2.34933        0.07502
H         -0.51600        1.84109       -0.51765
H          0.70062       -1.61106       -0.90652
H          2.58808        0.27104        2.16753
H          1.69517       -1.25625        1.89337
H          0.80775        0.29756        2.03439
