12
4_1.log	Energy: -208111.7417528
C          0.25947        1.21398       -0.00002
C         -1.13160        1.20433        0.00004
C         -1.82793        0.00000        0.00007
C         -1.13160       -1.20433        0.00005
C          0.25947       -1.21398       -0.00000
C          0.92095        0.00000       -0.00004
F          2.27888       -0.00000       -0.00009
H          0.82341        2.13700       -0.00004
H         -1.66966        2.14346        0.00006
H         -2.91000       -0.00000        0.00011
H         -1.66966       -2.14346        0.00008
H          0.82342       -2.13700       -0.00002
