16
50_1.log	Energy: -404628.0424878
C          1.49208        1.34928       -0.02445
C          2.83145        0.98979        0.02015
C          3.19786       -0.35218        0.03383
C          2.21426       -1.33142       -0.00028
C          0.86556       -0.98976       -0.04870
C          0.52596        0.35457       -0.05783
O         -0.78833        0.83908       -0.11547
C         -1.85470        0.03580        0.00739
F         -1.85756       -0.67171        1.15324
F         -2.94322        0.80775       -0.00247
F         -1.97147       -0.84964       -1.00302
H          1.18625        2.38667       -0.03361
H          3.58823        1.76297        0.04629
H          4.24247       -0.63145        0.07040
H          2.48787       -2.37844        0.00904
H          0.11718       -1.76645       -0.07885
