16
50_3.log	Energy: -404628.7656963
C         -1.13192        1.20983       -0.28212
C         -2.47239        1.20758        0.08718
C         -3.14560        0.00519        0.27490
C         -2.48112       -1.20250        0.09001
C         -1.14063       -1.21492       -0.27871
C         -0.49089       -0.00514       -0.45135
O          0.85181       -0.01260       -0.88927
C          1.81607       -0.00071        0.04471
F          1.76195       -1.06196        0.87404
F          2.99444       -0.02516       -0.58154
F          1.78204        1.09772        0.82568
H         -0.59205        2.13335       -0.43950
H         -2.98905        2.14837        0.22504
H         -4.18940        0.00931        0.56051
H         -3.00442       -2.13929        0.23001
H         -0.60659       -2.14235       -0.43317
