19
51_1.log	Energy: -219079.2605301
C          0.81959        1.29662       -0.00021
C          2.17981        1.00938        0.00004
C          2.61584       -0.31011        0.00021
C          1.67638       -1.33681        0.00010
C          0.31834       -1.04739       -0.00017
C         -0.13460        0.27612       -0.00031
C         -1.57766        0.62431       -0.00046
C         -2.58989       -0.21335        0.74796
C         -2.59015       -0.21440       -0.74731
H          0.48908        2.32866       -0.00034
H          2.89884        1.81941        0.00012
H          3.67427       -0.53739        0.00042
H          2.00300       -2.36949        0.00021
H         -0.39400       -1.86323       -0.00028
H         -1.76588        1.69033       -0.00116
H         -2.21905       -1.09262        1.25811
H         -3.38609        0.30711        1.26362
H         -3.38652        0.30537       -1.26340
H         -2.21957       -1.09441       -1.25637
