24
52_11.log	Energy: -244542.8590750
C          0.77625       -0.98248        0.66009
C          1.99926       -1.42900        0.16943
C          2.87391       -0.53760       -0.44034
C          2.51637        0.80282       -0.55202
C          1.29354        1.24223       -0.06069
C          0.40303        0.35703        0.55187
C         -0.93720        0.83878        1.04456
C         -1.93711        1.11923       -0.09083
C         -2.29338       -0.09408       -0.95147
C         -3.01852       -1.20364       -0.19499
H          0.10114       -1.68437        1.13484
H          2.26809       -2.47390        0.26485
H          3.82697       -0.88184       -0.82178
H          3.19353        1.50713       -1.01960
H          1.02536        2.28875       -0.15032
H         -1.35607        0.10284        1.73327
H         -0.80170        1.76080        1.61622
H         -1.52342        1.90169       -0.73347
H         -2.85198        1.52927        0.34948
H         -2.92465        0.24479       -1.77816
H         -1.38412       -0.49673       -1.40714
H         -2.39532       -1.63709        0.58930
H         -3.30474       -2.01443       -0.86873
H         -3.93005       -0.82667        0.27757
