24
52_3.log	Energy: -244542.8591014
C         -0.77664        0.98261        0.66017
C         -1.99971        1.42885        0.16937
C         -2.87403        0.53724       -0.44056
C         -2.51614       -0.80310       -0.55218
C         -1.29327       -1.24222       -0.06070
C         -0.40304       -0.35680        0.55195
C          0.93727       -0.83813        1.04489
C          1.93724       -1.11919       -0.09030
C          2.29357        0.09370       -0.95151
C          3.01853        1.20372       -0.19550
H         -0.10179        1.68464        1.13508
H         -2.26879        2.47368        0.26478
H         -3.82710        0.88124       -0.82216
H         -3.19306       -1.50757       -1.01984
H         -1.02489       -2.28869       -0.15026
H          1.35610       -0.10168        1.73308
H          0.80193       -1.75981        1.61715
H          1.52361       -1.90196       -0.73259
H          2.85204       -1.52906        0.35031
H          2.92499       -0.24557       -1.77792
H          1.38436        0.49605       -1.40755
H          2.39482        1.63814        0.58784
H          3.30559        2.01374       -0.86981
H          3.92954        0.82688        0.27817
