24
52_4.log	Energy: -244542.8422753
C         -1.16815        1.19267       -0.11110
C         -2.52011        1.30642        0.19268
C         -3.31879        0.16975        0.26039
C         -2.75389       -1.07846        0.02082
C         -1.40118       -1.18598       -0.28184
C         -0.58781       -0.05372       -0.35264
C          0.88629       -0.17716       -0.63259
C          1.71178       -0.35326        0.65028
C          3.21033       -0.53849        0.40622
C          3.89936        0.67587       -0.21121
H         -0.55287        2.08362       -0.16495
H         -2.95121        2.28361        0.37282
H         -4.37260        0.25626        0.49347
H         -3.36806       -1.96950        0.06619
H         -0.96873       -2.16219       -0.46965
H          1.06494       -1.03455       -1.28784
H          1.22620        0.71092       -1.16894
H          1.32575       -1.21976        1.19503
H          1.55124        0.51484        1.29836
H          3.69026       -0.77243        1.36115
H          3.36436       -1.41203       -0.23641
H          4.97631        0.51390       -0.29618
H          3.74530        1.56750        0.40320
H          3.52223        0.89394       -1.21228
