24
52_6.log	Energy: -244543.3864835
C          1.35861        1.19817        0.22365
C          2.65619        1.20110       -0.27561
C          3.30999       -0.00026       -0.52806
C          2.65593       -1.20141       -0.27513
C          1.35837       -1.19802        0.22410
C          0.68983        0.00021        0.48085
C         -0.73293        0.00046        0.97311
C         -1.75452       -0.00006       -0.17144
C         -3.20033        0.00016        0.31677
C         -4.21281       -0.00031       -0.82388
H          0.85662        2.13868        0.42048
H          3.15843        2.14198       -0.46462
H          4.32158       -0.00048       -0.91404
H          3.15801       -2.14245       -0.46377
H          0.85613       -2.13831        0.42132
H         -0.90321       -0.87785        1.60183
H         -0.90312        0.87935        1.60103
H         -1.58139       -0.87643       -0.80458
H         -1.58146        0.87572       -0.80540
H         -3.36523       -0.87558        0.95326
H         -3.36517        0.87647        0.95250
H         -5.23838       -0.00013       -0.44757
H         -4.09144       -0.88271       -1.45787
H         -4.09141        0.88152       -1.45865
