24
52_8.log	Energy: -244542.8422879
C          1.16815        1.19267       -0.11117
C          2.52009        1.30646        0.19266
C          3.31879        0.16981        0.26045
C          2.75392       -1.07841        0.02093
C          1.40122       -1.18597       -0.28177
C          0.58783       -0.05374       -0.35267
C         -0.88625       -0.17722       -0.63268
C         -1.71181       -0.35350        0.65012
C         -3.21036       -0.53857        0.40595
C         -3.89937        0.67611       -0.21085
H          0.55285        2.08361       -0.16506
H          2.95117        2.28367        0.37277
H          4.37259        0.25636        0.49354
H          3.36809       -1.96945        0.06638
H          0.96879       -2.16221       -0.46952
H         -1.22619        0.71088       -1.16897
H         -1.06484       -1.03456       -1.28801
H         -1.55127        0.51448        1.29836
H         -1.32586       -1.22010        1.19476
H         -3.36437       -1.41177       -0.23715
H         -3.69035       -0.77304        1.36073
H         -4.97625        0.51400       -0.29637
H         -3.52189        0.89502       -1.21161
H         -3.74571        1.56730        0.40429
