24
52_9.log	Energy: -244542.8591164
C          0.77681        0.98260       -0.66042
C          1.99988        1.42870       -0.16946
C          2.87393        0.53702        0.44073
C          2.51581       -0.80325        0.55243
C          1.29295       -1.24222        0.06080
C          0.40297       -0.35672       -0.55210
C         -0.93736       -0.83788       -1.04518
C         -1.93733       -1.11916        0.08996
C         -2.29345        0.09351        0.95158
C         -3.01811        1.20398        0.19596
H          0.10217        1.68469       -1.13554
H          2.26915        2.47347       -0.26495
H          3.82700        0.88090        0.82246
H          3.19253       -1.50778        1.02029
H          1.02438       -2.28864        0.15044
H         -1.35615       -0.10124       -1.73319
H         -0.80206       -1.75943       -1.61766
H         -1.52381       -1.90219        0.73200
H         -2.85222       -1.52873       -0.35074
H         -2.92496       -0.24593        1.77785
H         -1.38415        0.49549        1.40778
H         -3.92922        0.82755       -0.27784
H         -2.39428        1.63852       -0.58722
H         -3.30496        2.01383        0.87055
