26
53_3.log	Energy: -279284.9261173
C          1.16162        1.13287       -0.02434
C          2.54352        1.17908       -0.11914
C          3.30457        0.01432       -0.13229
C          2.64199       -1.20326       -0.03863
C          1.25871       -1.26680        0.06512
C          0.47284       -0.09617        0.06397
N         -0.91088       -0.12622        0.13720
C         -1.61583       -1.40173        0.18219
C         -3.01702       -1.34967       -0.41278
C         -1.61821        1.03040        0.68629
C         -2.20036        1.97201       -0.36327
H          0.61161        2.06152       -0.04323
H          3.02950        2.14477       -0.19229
H          4.38291        0.05602       -0.21026
H          3.20690       -2.12793       -0.03128
H          0.79867       -2.23735        0.16733
H         -1.66699       -1.78155        1.21384
H         -1.04407       -2.12440       -0.39428
H         -3.45223       -2.35084       -0.38231
H         -3.68515       -0.68632        0.13677
H         -2.98597       -1.02324       -1.45379
H         -2.42007        0.66068        1.32858
H         -0.93990        1.58122        1.34046
H         -1.42235        2.35838       -1.02336
H         -2.68699        2.82157        0.12317
H         -2.94060        1.46476       -0.98243
