26
53_4.log	Energy: -279285.0163168
C          1.23032        1.03799       -0.48040
C          2.61012        0.99946       -0.35859
C          3.26585       -0.14851        0.07545
C          2.49676       -1.25976        0.39450
C          1.11271       -1.23695        0.28027
C          0.43479       -0.08946       -0.18190
N         -0.94412       -0.07362       -0.35418
C         -1.63655        1.21203       -0.37842
C         -1.75702        1.87880        0.98969
C         -1.70258       -1.23790        0.10635
C         -3.15901       -1.26038       -0.32963
H          0.77375        1.95608       -0.81610
H          3.17930        1.88786       -0.60539
H          4.34339       -0.17096        0.17068
H          2.97387       -2.16522        0.75046
H          0.56459       -2.12203        0.56060
H         -2.62628        1.05330       -0.79881
H         -1.12926        1.87392       -1.07783
H         -2.27857        2.83485        0.90176
H         -2.32003        1.25092        1.68361
H         -0.77454        2.06686        1.42591
H         -1.22269       -2.12512       -0.30658
H         -1.64811       -1.33313        1.20060
H         -3.58544       -2.22751       -0.05668
H         -3.25280       -1.14554       -1.41148
H         -3.76077       -0.49086        0.15453
