26
53_7.log	Energy: -279285.0164028
C          1.11324       -1.23695        0.27985
C          2.49728       -1.25962        0.39387
C          3.26616       -0.14809        0.07528
C          2.61015        0.99999       -0.35793
C          1.23032        1.03839       -0.47947
C          0.43501       -0.08938       -0.18163
N         -0.94389       -0.07384       -0.35390
C         -1.70246       -1.23781        0.10720
C         -3.15858       -1.26075       -0.32991
C         -1.63671        1.21166       -0.37894
C         -1.75878        1.87835        0.98900
H          0.56538       -2.12224        0.56006
H          2.97458       -2.16519        0.74930
H          4.34372       -0.17047        0.17023
H          3.17913        1.88866       -0.60422
H          0.77364        1.95663       -0.81452
H         -1.64869       -1.33197        1.20157
H         -1.22239       -2.12537       -0.30471
H         -3.76086       -0.49092        0.15311
H         -3.25135       -1.14677       -1.41192
H         -3.58520       -2.22769       -0.05661
H         -1.12876        1.87362       -1.07774
H         -2.62595        1.05257       -0.80039
H         -2.32244        1.25045        1.68237
H         -2.28046        2.83428        0.90047
H         -0.77685        2.06666        1.42635
