26
53_8.log	Energy: -279285.0164122
C          1.23039        1.03829       -0.47983
C          2.61020        0.99985       -0.35809
C          3.26606       -0.14820        0.07549
C          2.49710       -1.25964        0.39414
C          1.11305       -1.23690        0.27994
C          0.43500       -0.08933       -0.18173
N         -0.94393       -0.07375       -0.35430
C         -1.70236       -1.23792        0.10665
C         -3.15875       -1.26054       -0.32958
C         -1.63672        1.21177       -0.37874
C         -1.75833        1.87833        0.98933
H          0.77379        1.95644       -0.81527
H          3.17930        1.88839       -0.60458
H          4.34361       -0.17059        0.17063
H          2.97429       -2.16520        0.74973
H          0.56508       -2.12216        0.56002
H         -1.64797       -1.33258        1.20094
H         -1.22252       -2.12532       -0.30593
H         -3.76068       -0.49098        0.15430
H         -3.25221       -1.14592       -1.41147
H         -3.58516       -2.22765       -0.05659
H         -1.12928        1.87384       -1.07785
H         -2.62623        1.05270       -0.79957
H         -2.32178        1.25025        1.68271
H         -2.28014        2.83421        0.90100
H         -0.77635        2.06668        1.42650
