26
53_9.log	Energy: -279285.0163896
C          1.23038        1.03819       -0.48000
C          2.61019        0.99974       -0.35818
C          3.26600       -0.14829        0.07554
C          2.49699       -1.25967        0.39425
C          1.11294       -1.23691        0.27997
C          0.43494       -0.08937       -0.18182
N         -0.94397       -0.07372       -0.35435
C         -1.70239       -1.23798        0.10642
C         -3.15889       -1.26039       -0.32940
C         -1.63671        1.21184       -0.37864
C         -1.75789        1.87844        0.98943
H          0.77385        1.95633       -0.81557
H          3.17930        1.88825       -0.60474
H          4.34354       -0.17070        0.17075
H          2.97412       -2.16523        0.74993
H          0.56495       -2.12215        0.56011
H         -1.64769       -1.33302        1.20066
H         -1.22269       -2.12527       -0.30660
H         -3.58531       -2.22752       -0.05651
H         -3.76064       -0.49090        0.15482
H         -3.25267       -1.14552       -1.41123
H         -1.12939        1.87385       -1.07791
H         -2.62632        1.05280       -0.79923
H         -0.77577        2.06681        1.42629
H         -2.32111        1.25040        1.68302
H         -2.27971        2.83433        0.90123
