22
54_1.log	Energy: -267076.9780850
C          1.67843       -1.22830        0.19391
C          2.89637       -0.58683        0.34969
C          3.00199        0.78920        0.15688
C          1.86821        1.50927       -0.19326
C          0.63652        0.87888       -0.35247
C          0.53885       -0.49996       -0.16042
O         -0.60169       -1.22680       -0.30523
C         -1.83609       -0.56634       -0.60768
C         -2.48811        0.05253        0.61782
C         -3.81479        0.71791        0.26542
H          1.58642       -2.29695        0.33988
H          3.76986       -1.16560        0.62346
H          3.95354        1.28938        0.28031
H          1.93157        2.57992       -0.34431
H         -0.22839        1.46768       -0.61840
H         -2.47258       -1.35315       -1.01438
H         -1.68380        0.17439       -1.39743
H         -1.81256        0.78323        1.06761
H         -2.64466       -0.73416        1.36048
H         -4.51358        0.00193       -0.17486
H         -4.28782        1.14048        1.15345
H         -3.67279        1.52913       -0.45330
