22
54_4.log	Energy: -267078.0270185
C          1.28653        1.27736       -0.19730
C          2.65823        1.17355       -0.03730
C          3.25402       -0.06706        0.18544
C          2.45416       -1.19937        0.24379
C          1.07263       -1.11209        0.08456
C          0.48431        0.13366       -0.13692
O         -0.84831        0.33283       -0.30514
C         -1.73014       -0.79211       -0.24024
C         -3.14931       -0.29215       -0.41345
C         -3.61187        0.63023        0.70955
H          0.81369        2.23564       -0.37035
H          3.26770        2.06745       -0.08565
H          4.32596       -0.14558        0.31069
H          2.90175       -2.17066        0.41519
H          0.47264       -2.00839        0.13350
H         -1.61272       -1.29262        0.72707
H         -1.47115       -1.50359       -1.03051
H         -3.79783       -1.17141       -0.46644
H         -3.22838        0.21655       -1.37837
H         -2.99414        1.52781        0.76367
H         -4.64620        0.94401        0.55533
H         -3.55616        0.12614        1.67816
