22
54_6.log	Energy: -267076.9780053
C         -0.63712        0.87929        0.35195
C         -1.86907        1.50918        0.19275
C         -3.00265        0.78862       -0.15694
C         -2.89657       -0.58741       -0.34936
C         -1.67839       -1.22839       -0.19356
C         -0.53901       -0.49957        0.16034
O          0.60180       -1.22606        0.30502
C          1.83602       -0.56537        0.60790
C          2.48897        0.05232       -0.61765
C          3.81592        0.71706       -0.26524
H          0.22758        1.46856        0.61747
H         -1.93276        2.57985        0.34350
H         -3.95440        1.28840       -0.28035
H         -3.76991       -1.16656       -0.62281
H         -1.58604       -2.29705       -0.33920
H          2.47219       -1.35182        1.01583
H          1.68308        0.17602        1.39690
H          1.81412        0.78316       -1.06828
H          2.64529       -0.73500       -1.35971
H          4.51423        0.00080        0.17533
H          4.28929        1.13916       -1.15330
H          3.67428        1.52855        0.45325
