21
55_16.log	Energy: -313567.4105490
C         -1.58691       -1.19381        0.25657
C         -2.93491       -1.19060       -0.08332
C         -3.59552        0.01272       -0.30675
C         -2.89917        1.21053       -0.18591
C         -1.55127        1.20243        0.15419
C         -0.87802        0.00141        0.37969
C          0.59145       -0.00609        0.70725
C          1.45509       -0.08595       -0.57082
C          2.91673       -0.11374       -0.22522
O          3.40522        1.11889        0.02396
O          3.59800       -1.10780       -0.13691
H         -1.07789       -2.13458        0.43195
H         -3.47034       -2.12789       -0.17057
H         -4.64597        0.01716       -0.56883
H         -3.40668        2.15253       -0.35303
H         -1.01438        2.13919        0.24997
H          0.82631       -0.86110        1.34424
H          0.85391        0.89810        1.25872
H          1.22049       -0.99650       -1.11963
H          1.24517        0.77514       -1.20613
H          4.33888        1.02791        0.28291
