21
55_12.log	Energy: -313566.8542556
C         -1.34341        1.05617        0.07160
C         -2.69884        1.37763        0.04289
C         -3.65659        0.37590       -0.02896
C         -3.24860       -0.95482       -0.07313
C         -1.89805       -1.27029       -0.04493
C         -0.92117       -0.27182        0.02938
C          0.53263       -0.68463        0.07188
C          1.53824        0.45179       -0.01724
C          2.96387       -0.02653       -0.00777
O          3.83068        1.00276       -0.10964
O          3.33231       -1.17301        0.07935
H         -0.61911        1.85746        0.12670
H         -3.00178        2.41693        0.07619
H         -4.70976        0.62572       -0.05204
H         -3.98497       -1.74688       -0.13162
H         -1.58937       -2.30896       -0.08163
H          0.72011       -1.39101       -0.74006
H          0.71222       -1.24611        0.99282
H          1.39729        1.04184       -0.92698
H          1.42980        1.15352        0.81404
H          4.73307        0.63901       -0.09744
