21
55_14.log	Energy: -313567.6027382
C         -1.47536        1.24161       -0.25278
C         -2.63366        0.64369       -0.73287
C         -2.92546       -0.67661       -0.40474
C         -2.05239       -1.38974        0.40809
C         -0.89426       -0.78665        0.88734
C         -0.58979        0.53541        0.56324
C          0.68803        1.17515        1.04240
C          1.79747        1.16150       -0.02694
C          2.17575       -0.22362       -0.47548
O          2.59241       -0.99719        0.54909
O          2.13315       -0.63002       -1.61159
H         -1.25526        2.27098       -0.51174
H         -3.31033        1.20844       -1.36215
H         -3.82798       -1.14396       -0.77785
H         -2.27273       -2.41678        0.67169
H         -0.21788       -1.34739        1.52107
H          1.04550        0.66793        1.93863
H          0.50373        2.21712        1.31025
H          1.48576        1.71494       -0.91071
H          2.69368        1.63769        0.37981
H          2.80893       -1.87572        0.19147
