21
55_13.log	Energy: -313567.6027432
C         -0.89433       -0.78670       -0.88730
C         -2.05246       -1.38973       -0.40798
C         -2.92547       -0.67654        0.40485
C         -2.63361        0.64376        0.73292
C         -1.47530        1.24162        0.25276
C         -0.58979        0.53536       -0.56325
C          0.68802        1.17506       -1.04254
C          1.79752        1.16147        0.02673
C          2.17579       -0.22360        0.47545
O          2.59212       -0.99742       -0.54903
O          2.13344       -0.62973        1.61167
H         -0.21800       -1.34749       -1.52104
H         -2.27285       -2.41678       -0.67154
H         -3.82800       -1.14384        0.77802
H         -3.31024        1.20857        1.36220
H         -1.25517        2.27100        0.51167
H          0.50372        2.21700       -1.31047
H          1.04541        0.66775       -1.93875
H          2.69373        1.63757       -0.38015
H          1.48593        1.71505        0.91045
H          2.80867       -1.87590       -0.19129
