21
55_1.log	Energy: -313567.9674492
C         -1.50571        1.24797        0.24118
C         -2.65471        0.70038        0.79834
C         -2.98364       -0.62898        0.55265
C         -2.15622       -1.40120       -0.25443
C         -1.00668       -0.84897       -0.80982
C         -0.66522        0.48202       -0.56945
C          0.59793        1.07858       -1.13785
C          1.74826        1.10788       -0.12529
C          2.28513       -0.25975        0.20449
O          2.76486       -0.32665        1.46228
O          2.32915       -1.19876       -0.55355
H         -1.25901        2.28605        0.43336
H         -3.29589        1.31214        1.42094
H         -3.87956       -1.05744        0.98402
H         -2.40517       -2.43617       -0.45401
H         -0.36323       -1.45615       -1.43359
H          0.40657        2.10535       -1.45501
H          0.91241        0.51858       -2.01866
H          2.59202        1.67131       -0.53786
H          1.45209        1.60993        0.79545
H          3.13291       -1.21783        1.59651
