21
55_4.log	Energy: -313567.4105509
C         -1.55131        1.20247        0.15379
C         -2.89921        1.21041       -0.18631
C         -3.59551        0.01252       -0.30676
C         -2.93485       -1.19069       -0.08293
C         -1.58685       -1.19373        0.25696
C         -0.87801        0.00156        0.37970
C          0.59145       -0.00576        0.70726
C          1.45508       -0.08611       -0.57080
C          2.91673       -0.11377       -0.22527
O          3.40495        1.11881        0.02464
O          3.59825       -1.10773       -0.13763
H         -1.01445        2.13929        0.24927
H         -3.40676        2.15234       -0.35375
H         -4.64596        0.01683       -0.56885
H         -3.47024       -2.12803       -0.16987
H         -1.07779       -2.13442        0.43265
H          0.82635       -0.86052        1.34458
H          0.85390        0.89865        1.25836
H          1.22047       -0.99684       -1.11930
H          1.24515        0.77478       -1.20639
H          4.33865        1.02787        0.28347
