21
55_5.log	Energy: -313567.4105446
C          1.55119        1.20238        0.15424
C          2.89908        1.21060       -0.18584
C          3.59553        0.01283       -0.30673
C          2.93500       -1.19054       -0.08337
C          1.58699       -1.19386        0.25651
C          0.87803        0.00130        0.37968
C         -0.59146       -0.00630        0.70722
C         -1.45509       -0.08578       -0.57085
C         -2.91673       -0.11371       -0.22522
O         -3.40529        1.11886        0.02402
O         -3.59793       -1.10783       -0.13694
H          1.01422        2.13910        0.25006
H          3.40654        2.15264       -0.35292
H          4.64598        0.01737       -0.56880
H          3.47050       -2.12778       -0.17066
H          1.07804       -2.13467        0.43182
H         -0.85391        0.89773        1.25897
H         -0.82630       -0.86148        1.34399
H         -1.24522        0.77554       -1.20587
H         -1.22049       -0.99615       -1.11996
H         -4.33894        1.02784        0.28299
