21
55_6.log	Energy: -313567.9673953
C         -1.00655       -0.84894       -0.80964
C         -2.15606       -1.40142       -0.25443
C         -2.98383       -0.62934        0.55238
C         -2.65529        0.70013        0.79803
C         -1.50628        1.24794        0.24117
C         -0.66545        0.48214       -0.56929
C          0.59784        1.07869       -1.13751
C          1.74808        1.10794       -0.12501
C          2.28540       -0.25964        0.20447
O          2.76466       -0.32678        1.46242
O          2.33030       -1.19824       -0.55398
H         -0.36284       -1.45598       -1.43328
H         -2.40469       -2.43648       -0.45395
H         -3.87981       -1.05787        0.98356
H         -3.29681        1.31174        1.42042
H         -1.25980        2.28609        0.43325
H          0.40647        2.10541       -1.45477
H          0.91241        0.51860       -2.01825
H          2.59192        1.67122       -0.53774
H          1.45232        1.60994        0.79585
H          3.13399       -1.21747        1.59641
