21
55_8.log	Energy: -313567.6027432
C          0.89429       -0.78670       -0.88728
C          2.05244       -1.38974       -0.40800
C          2.92549       -0.67654        0.40479
C          2.63365        0.64376        0.73287
C          1.47532        1.24162        0.25276
C          0.58978        0.53536       -0.56323
C         -0.68803        1.17506       -1.04248
C         -1.79754        1.16150        0.02679
C         -2.17579       -0.22359        0.47546
O         -2.59223       -0.99734       -0.54905
O         -2.13332       -0.62982        1.61164
H          0.21793       -1.34750       -1.52098
H          2.27281       -2.41679       -0.67155
H          3.82804       -1.14385        0.77791
H          3.31031        1.20856        1.36213
H          1.25520        2.27099        0.51168
H         -1.04545        0.66777       -1.93869
H         -0.50372        2.21700       -1.31042
H         -1.48593        1.71506        0.91052
H         -2.69373        1.63761       -0.38010
H         -2.80871       -1.87585       -0.19135
