21
55_9.log	Energy: -313567.6027407
C         -0.89423       -0.78658       -0.88740
C         -2.05234       -1.38969       -0.40815
C         -2.92539       -0.67660        0.40473
C         -2.63357        0.64367        0.73292
C         -1.47528        1.24162        0.25283
C         -0.58974        0.53546       -0.56323
C          0.68807        1.17520       -1.04243
C          1.79758        1.16148        0.02685
C          2.17568       -0.22366        0.47549
O          2.59221       -0.99738       -0.54900
O          2.13300       -0.62994        1.61163
H         -0.21786       -1.34729       -1.52116
H         -2.27269       -2.41673       -0.67180
H         -3.82791       -1.14397        0.77783
H         -3.31023        1.20840        1.36225
H         -1.25517        2.27098        0.51185
H          0.50380        2.21718       -1.31022
H          1.04547        0.66800       -1.93870
H          2.69382        1.63752       -0.38001
H          1.48599        1.71504        0.91058
H          2.80850       -1.87595       -0.19133
