21
56_1.log	Energy: -313560.6684423
C          1.55811        1.20281        0.05923
C          2.91328        0.93839        0.18961
C          3.37011       -0.37606        0.17522
C          2.46804       -1.42502        0.03003
C          1.11103       -1.16403       -0.10123
C          0.64900        0.15368       -0.08739
C         -0.79440        0.48752       -0.22278
O         -1.23236        1.61770       -0.20539
O         -1.56137       -0.60239       -0.37239
C         -2.99255       -0.40427       -0.48433
C         -3.64120       -0.31584        0.87896
H          1.18950        2.21921        0.06920
H          3.61397        1.75559        0.30256
H          4.42804       -0.58260        0.27727
H          2.82247       -2.44767        0.01901
H          0.40939       -1.97761       -0.21377
H         -3.33965       -1.27795       -1.03357
H         -3.17943        0.48959       -1.07739
H         -3.29243        0.56078        1.42531
H         -4.72417       -0.23638        0.76038
H         -3.42637       -1.20849        1.46922
