21
56_2.log	Energy: -313561.0092446
C         -0.97260       -1.14465       -0.00043
C         -2.29043       -1.58056       -0.00029
C         -3.33122       -0.65757        0.00019
C         -3.05294        0.70597        0.00052
C         -1.73743        1.14511        0.00036
C         -0.68972        0.22279       -0.00010
C          0.70435        0.74139       -0.00025
O          0.99166        1.91937       -0.00016
O          1.61910       -0.23733       -0.00053
C          3.00974        0.16618       -0.00052
C          3.84712       -1.08799        0.00104
H         -0.16327       -1.86021       -0.00080
H         -2.50593       -2.64130       -0.00055
H         -4.35818       -1.00039        0.00030
H         -3.86174        1.42528        0.00089
H         -1.50689        2.20150        0.00060
H          3.19321        0.77961        0.88251
H          3.19371        0.77770       -0.88480
H          4.90486       -0.81764        0.00100
H          3.64825       -1.69148        0.88840
H          3.64869       -1.69344       -0.88508
