21
56_3.log	Energy: -313561.0092760
C          0.97256       -1.14467       -0.00010
C          2.29038       -1.58062       -0.00007
C          3.33119       -0.65761        0.00003
C          3.05296        0.70595        0.00011
C          1.73746        1.14512        0.00008
C          0.68974        0.22280       -0.00002
C         -0.70439        0.74141       -0.00006
O         -0.99158        1.91944       -0.00014
O         -1.61910       -0.23719        0.00005
C         -3.00982        0.16622        0.00001
C         -3.84710       -1.08815        0.00009
H          0.16314       -1.86014       -0.00018
H          2.50593       -2.64135       -0.00014
H          4.35815       -1.00045        0.00005
H          3.86181        1.42521        0.00019
H          1.50677        2.20148        0.00013
H         -3.19361        0.77859       -0.88369
H         -3.19361        0.77871        0.88363
H         -3.64811       -1.69253       -0.88662
H         -3.64812       -1.69242        0.88687
H         -4.90484       -0.81792        0.00006
