21
56_4.log	Energy: -313560.6685289
C         -1.11121       -1.16403        0.10207
C         -2.46821       -1.42499       -0.02932
C         -3.37013       -0.37600       -0.17550
C         -2.91319        0.93840       -0.19068
C         -1.55804        1.20279       -0.06005
C         -0.64911        0.15366        0.08748
C          0.79433        0.48742        0.22330
O          1.23192        1.61782        0.20785
O          1.56126       -0.60259        0.37072
C          2.99264       -0.40476        0.48380
C          3.64197       -0.31532       -0.87919
H         -0.40959       -1.97754        0.21536
H         -2.82279       -2.44758       -0.01763
H         -4.42806       -0.58251       -0.27767
H         -3.61378        1.75558       -0.30443
H         -1.18924        2.21912       -0.07053
H          3.33911       -1.27898        1.03250
H          3.17911        0.48868        1.07754
H          4.72487       -0.23585       -0.76001
H          3.42733       -1.20751       -1.47017
H          3.29327        0.56176       -1.42486
