22
57_2.log	Energy: -243761.5308931
C         -0.95553       -1.19849        0.13344
C         -2.32739       -1.20075       -0.09232
C         -3.01962        0.00008       -0.20617
C         -2.32724        1.20084       -0.09254
C         -0.95538        1.19846        0.13322
C         -0.24920       -0.00005        0.25210
C          1.22703       -0.00015        0.52109
C          2.13351       -1.08090       -0.12524
C          3.22718        0.00003       -0.29247
C          2.13358        1.08092       -0.12459
H         -0.42609       -2.14002        0.21590
H         -2.85582       -2.14191       -0.18308
H         -4.08735        0.00013       -0.38571
H         -2.85555        2.14206       -0.18347
H         -0.42582        2.13994        0.21551
H          1.39288       -0.00049        1.60319
H          1.73435       -1.39857       -1.08998
H          2.37353       -1.96370        0.46696
H          3.79437        0.00029       -1.22286
H          3.92576       -0.00026        0.54538
H          1.73446        1.39920       -1.08914
H          2.37365        1.96335        0.46815
