22
57_3.log	Energy: -243761.5309151
C          0.95540       -1.19847       -0.13316
C          2.32728       -1.20085        0.09256
C          3.01970       -0.00008        0.20611
C          2.32744        1.20075        0.09226
C          0.95555        1.19847       -0.13345
C          0.24919        0.00003       -0.25203
C         -1.22707        0.00017       -0.52117
C         -2.13363       -1.08091        0.12463
C         -3.22730       -0.00001        0.29225
C         -2.13349        1.08088        0.12548
H          0.42585       -2.13997       -0.21535
H          2.85560       -2.14207        0.18349
H          4.08744       -0.00014        0.38560
H          2.85585        2.14194        0.18295
H          0.42612        2.14002       -0.21582
H         -1.39279        0.00063       -1.60324
H         -1.73453       -1.39917        1.08920
H         -2.37368       -1.96336       -0.46809
H         -3.79486       -0.00033        1.22243
H         -3.92561        0.00037       -0.54584
H         -1.73429        1.39832        1.09028
H         -2.37341        1.96383       -0.46654
