27
58_1.log	Energy: -269225.6864298
C         -1.44583       -0.39944        1.17733
C         -2.43694       -1.29881        0.79732
C         -3.10564       -1.13142       -0.40961
C         -2.77678       -0.05674       -1.23042
C         -1.78613        0.83799       -0.84526
C         -1.10378        0.68046        0.36346
C         -0.00386        1.63556        0.75014
C          1.30444        1.40800       -0.02388
C          1.95647        0.05510        0.24313
C          3.26503       -0.14331       -0.51783
C          3.91273       -1.49756       -0.24796
H         -0.92832       -0.53745        2.11935
H         -2.68650       -2.13014        1.44522
H         -3.87855       -1.82873       -0.70733
H         -3.29571        0.08607       -2.17040
H         -1.53871        1.67379       -1.48981
H         -0.33950        2.66111        0.57440
H          0.19420        1.54555        1.82137
H          1.10793        1.51109       -1.09594
H          2.00584        2.20564        0.24089
H          2.14412       -0.04924        1.31824
H          1.26152       -0.74662       -0.02459
H          3.07493       -0.03699       -1.59112
H          3.96405        0.65626       -0.25015
H          4.14250       -1.61967        0.81410
H          4.84554       -1.61353       -0.80471
H          3.24839       -2.31607       -0.53794
