27
58_15.log	Energy: -269223.0250348
C         -1.06201        1.07806       -0.46556
C         -2.25490        1.55705        0.06734
C         -3.23051        0.66859        0.50309
C         -3.00448       -0.70084        0.39813
C         -1.81159       -1.17241       -0.13489
C         -0.82032       -0.29124       -0.57407
C          0.48263       -0.81413       -1.12260
C          1.39997       -1.42132       -0.04413
C          1.89387       -0.45328        1.04097
C          3.20387        0.27976        0.73428
C          3.16713        1.23873       -0.45309
H         -0.30709        1.77725       -0.80471
H         -2.42109        2.62481        0.14119
H         -4.16022        1.03794        0.91724
H         -3.76091       -1.40176        0.72939
H         -1.64646       -2.24079       -0.21503
H          0.27209       -1.59076       -1.86349
H          0.99690       -0.01005       -1.64796
H          0.85142       -2.23760        0.43321
H          2.26150       -1.88278       -0.53768
H          1.11051        0.27717        1.26549
H          2.04480       -1.02081        1.96347
H          3.49540        0.84080        1.62776
H          3.99322       -0.46225        0.57135
H          4.10741        1.78969       -0.53318
H          2.36281        1.97119       -0.34580
H          3.01765        0.71418       -1.39805
