27
58_12.log	Energy: -269223.8325560
C          1.32739       -0.89131        0.99189
C          2.42048       -0.04864        1.16531
C          2.82282        0.79237        0.13459
C          2.12876        0.77510       -1.07177
C          1.03952       -0.07010       -1.23896
C          0.61528       -0.91004       -0.20689
C         -0.58683       -1.80292       -0.38580
C         -1.92146       -1.07920       -0.62846
C         -2.47845       -0.29361        0.56466
C         -1.81013        1.04877        0.88539
C         -1.91611        2.07940       -0.23468
H          1.01309       -1.53657        1.80389
H          2.95524       -0.04742        2.10721
H          3.67095        1.45224        0.26683
H          2.43809        1.42159       -1.88390
H          0.50599       -0.07400       -2.18215
H         -0.40470       -2.46629       -1.23724
H         -0.68703       -2.44600        0.49245
H         -1.82954       -0.42587       -1.49987
H         -2.65547       -1.84208       -0.90323
H         -3.54118       -0.10389        0.37828
H         -2.43658       -0.93321        1.45301
H         -2.28598        1.45378        1.78416
H         -0.76011        0.89759        1.13869
H         -1.37925        1.76195       -1.13004
H         -1.49185        3.03710        0.07537
H         -2.95938        2.25216       -0.51514
