27
58_10.log	Energy: -269224.8628820
C          1.82498       -1.19886        0.00270
C          3.02998       -0.68148       -0.45581
C          3.27677        0.68621       -0.38206
C          2.30957        1.52635        0.15669
C          1.10492        1.00182        0.61438
C          0.84231       -0.36608        0.54359
C         -0.47608       -0.93666        0.99936
C         -1.40646       -1.32194       -0.16381
C         -1.82051       -0.15922       -1.06874
C         -2.60521        0.96187       -0.38116
C         -3.92409        0.51001        0.24030
H          1.64307       -2.26592       -0.05644
H          3.77941       -1.34603       -0.86806
H          4.21565        1.09131       -0.73802
H          2.49169        2.59209        0.22179
H          0.35634        1.66432        1.03192
H         -0.29287       -1.83077        1.60121
H         -0.97616       -0.21815        1.65153
H         -0.90529       -2.07781       -0.77520
H         -2.29487       -1.80530        0.25109
H         -0.92685        0.26833       -1.53206
H         -2.42743       -0.56075       -1.88712
H         -1.98483        1.43121        0.38711
H         -2.80715        1.74195       -1.12116
H         -4.47682        1.35924        0.64865
H         -3.76807       -0.20020        1.05495
H         -4.56295        0.02432       -0.50286
