27
58_19.log	Energy: -269225.0127105
C         -1.59908        0.64844        1.04748
C         -2.73213        1.23507        0.49269
C         -3.34566        0.65893       -0.61333
C         -2.81848       -0.50877       -1.15684
C         -1.68685       -1.08964       -0.59819
C         -1.05804       -0.52009        0.51162
C          0.19072       -1.14037        1.08375
C          1.44404       -0.90460        0.22504
C          1.84445        0.56436        0.11410
C          3.05881        0.81776       -0.78214
C          4.35913        0.20403       -0.26866
H         -1.12579        1.10466        1.90902
H         -3.13519        2.14238        0.92571
H         -4.22833        1.11238       -1.04647
H         -3.29229       -0.96907       -2.01526
H         -1.28538       -2.00077       -1.02699
H          0.36529       -0.74348        2.08719
H          0.03975       -2.21793        1.19110
H          2.26441       -1.48329        0.65669
H          1.27198       -1.30865       -0.77818
H          0.99712        1.13651       -0.27301
H          2.04783        0.95764        1.11729
H          2.84742        0.43602       -1.78689
H          3.19433        1.89824       -0.88877
H          5.20116        0.47575       -0.90954
H          4.31108       -0.88621       -0.23742
H          4.58519        0.55509        0.74236
