27
58_11.log	Energy: -269224.9473510
C         -1.41233        1.14705       -0.22154
C         -2.73320        1.45026        0.08857
C         -3.66080        0.42913        0.26590
C         -3.25572       -0.89443        0.12947
C         -1.93323       -1.19149       -0.17998
C         -0.99181       -0.17681       -0.36035
C          0.44994       -0.50063       -0.64658
C          1.27774       -0.65799        0.63673
C          2.74003       -1.03520        0.38980
C          3.55300       -0.02215       -0.42225
C          3.62436        1.36584        0.20855
H         -0.69568        1.94832       -0.36186
H         -3.03940        2.48443        0.18817
H         -4.69081        0.66276        0.50417
H         -3.97136       -1.69677        0.26106
H         -1.62567       -2.22550       -0.28701
H          0.51170       -1.42704       -1.22475
H          0.87962        0.28958       -1.26551
H          1.21955        0.26970        1.21243
H          0.81372       -1.42899        1.25855
H          3.22821       -1.18000        1.35946
H          2.77405       -2.00428       -0.11923
H          4.56765       -0.41358       -0.54135
H          3.14229        0.05888       -1.43281
H          4.01933        1.31510        1.22720
H          2.64227        1.84051        0.25981
H          4.27668        2.02547       -0.36822
