27
58_22.log	Energy: -269223.0231340
C          1.03573        1.06397        0.48867
C          2.21818        1.56038       -0.05140
C          3.19523        0.68637       -0.51247
C          2.98111       -0.68620       -0.42549
C          1.79862       -1.17526        0.11504
C          0.80603       -0.30866        0.57942
C         -0.48620       -0.84964        1.13580
C         -1.40985       -1.45508        0.06175
C         -1.90153       -0.49621       -1.03166
C         -3.17464        0.29484       -0.71276
C         -3.05963        1.32352        0.40977
H          0.27919        1.75181        0.84663
H          2.37510        2.63044       -0.11110
H          4.11678        1.06930       -0.93250
H          3.73880       -1.37607       -0.77653
H          1.64291       -2.24600        0.18110
H         -0.26053       -1.63294        1.86517
H         -1.00154       -0.05721        1.67711
H         -0.86695       -2.27707       -0.41263
H         -2.27286       -1.90897        0.55987
H         -1.09865        0.19718       -1.30081
H         -2.10087       -1.08501       -1.93153
H         -3.48735        0.81145       -1.62567
H         -3.97825       -0.41037       -0.47376
H         -2.23513        2.01726        0.22642
H         -2.89245        0.85506        1.38057
H         -3.97655        1.91288        0.48761
