27
58_24.log	Energy: -269224.9473560
C          1.93328       -1.19148        0.18038
C          3.25582       -0.89450       -0.12906
C          3.66089        0.42901       -0.26587
C          2.73326        1.45022       -0.08887
C          1.41238        1.14710        0.22122
C          0.99187       -0.17676        0.36036
C         -0.44997       -0.50045        0.64650
C         -1.27758       -0.65748       -0.63695
C         -2.73988       -1.03513       -0.39047
C         -3.55323       -0.02268        0.42211
C         -3.62472        1.36574       -0.20771
H          1.62573       -2.22547        0.28770
H          3.97146       -1.69689       -0.26037
H          4.69093        0.66260       -0.50411
H          3.03950        2.48436       -0.18875
H          0.69569        1.94839        0.36127
H         -0.51183       -1.42694        1.22453
H         -0.87953        0.28974        1.26551
H         -1.21956        0.27042       -1.21233
H         -0.81336       -1.42818       -1.25898
H         -3.22781       -1.17936       -1.36032
H         -2.77390       -2.00447        0.11807
H         -4.56785       -0.41439        0.54062
H         -3.14276        0.05765        1.43280
H         -4.27650        2.02506        0.37001
H         -4.02041        1.31577       -1.22611
H         -2.64255        1.84021       -0.25932
