27
58_25.log	Energy: -269225.3565261
C          1.93090       -1.06606        0.29565
C          2.97807       -0.26776        0.73885
C          3.02386        1.07993        0.39476
C          2.01614        1.61706       -0.39755
C          0.97063        0.81221       -0.83869
C          0.90988       -0.53938       -0.49900
C         -0.24246       -1.40545       -0.93781
C         -1.25931       -1.67763        0.18531
C         -1.94016       -0.43280        0.75522
C         -2.82633        0.31684       -0.23772
C         -3.51770        1.52469        0.38641
H          1.90520       -2.11537        0.56673
H          3.76162       -0.69782        1.35067
H          3.83972        1.70342        0.73819
H          2.04290        2.66396       -0.67406
H          0.18935        1.23925       -1.45602
H         -0.74510       -0.93763       -1.78617
H          0.14167       -2.36586       -1.29148
H         -2.02160       -2.36311       -0.19912
H         -0.74794       -2.20513        0.99564
H         -2.55118       -0.73330        1.61272
H         -1.18139        0.25146        1.14803
H         -2.22997        0.64771       -1.09205
H         -3.57877       -0.37137       -0.63820
H         -4.14784        2.04498       -0.33873
H         -2.78534        2.24237        0.76600
H         -4.15240        1.22649        1.22532
