27
58_21.log	Energy: -269223.0231008
C         -1.03632        1.06421        0.48882
C         -2.21884        1.56028       -0.05142
C         -3.19554        0.68598       -0.51269
C         -2.98101       -0.68653       -0.42572
C         -1.79846       -1.17524        0.11499
C         -0.80620       -0.30835        0.57956
C          0.48611       -0.84897        1.13612
C          1.40979       -1.45473        0.06228
C          1.90149       -0.49622       -1.03147
C          3.17501        0.29435       -0.71304
C          3.06060        1.32331        0.40928
H         -0.28007        1.75230        0.84694
H         -2.37609        2.63028       -0.11110
H         -4.11713        1.06863       -0.93288
H         -3.73841       -1.37664       -0.77691
H         -1.64244       -2.24593        0.18103
H          1.00137       -0.05627        1.67712
H          0.26055       -1.63202        1.86580
H          2.27281       -1.90843        0.56055
H          0.86693       -2.27692       -0.41182
H          2.10031       -1.08526       -1.93129
H          1.09882        0.19744       -1.30049
H          3.97837       -0.41114       -0.47406
H          3.48776        0.81065       -1.62611
H          2.89318        0.85512        1.38016
H          2.23646        2.01745        0.22579
H          3.97783        1.91221        0.48701
