27
58_20.log	Energy: -269224.9473567
C         -1.41238       -1.14710       -0.22116
C         -2.73329       -1.45018        0.08892
C         -3.66089       -0.42896        0.26584
C         -3.25578        0.89454        0.12897
C         -1.93325        1.19148       -0.18044
C         -0.99184        0.17672       -0.36036
C          0.44999        0.50037       -0.64644
C          1.27755        0.65735        0.63704
C          2.73984        1.03510        0.39054
C          3.55321        0.02278       -0.42214
C          3.62472       -1.36568        0.20760
H         -0.69573       -1.94843       -0.36116
H         -3.03952       -2.48432        0.18885
H         -4.69094       -0.66248        0.50406
H         -3.97143        1.69694        0.26022
H         -1.62565        2.22545       -0.28781
H          0.87960       -0.28984       -1.26541
H          0.51194        1.42687       -1.22444
H          0.81329        1.42798        1.25911
H          1.21959       -0.27060        1.21234
H          2.77375        2.00451       -0.11788
H          3.22779        1.17928        1.36039
H          3.14271       -0.05751       -1.43283
H          4.56781        0.41452       -0.54065
H          4.27677       -2.02488       -0.36997
H          2.64260       -1.84029        0.25885
H          4.02009       -1.31572        1.22612
