27
58_2.log	Energy: -269225.7692887
C          1.93432       -1.19874        0.21644
C          3.22379       -1.19992       -0.30334
C          3.87260        0.00232       -0.56426
C          3.22165        1.20257       -0.29938
C          1.93221        1.19740        0.22040
C          1.26874       -0.00171        0.48595
C         -0.14612       -0.00375        1.00015
C         -1.18509        0.00041       -0.12902
C         -2.62244       -0.00165        0.38186
C         -3.66260        0.00255       -0.73587
C         -5.09722        0.00049       -0.21771
H          1.43619       -2.13990        0.41986
H          3.72377       -2.14009       -0.50161
H          4.87793        0.00388       -0.96624
H          3.71997        2.14427       -0.49455
H          1.43245        2.13700        0.42696
H         -0.30662       -0.88474        1.62759
H         -0.30681        0.87249        1.63418
H         -1.02056        0.87890       -0.76120
H         -1.02038       -0.87329       -0.76777
H         -2.77967       -0.88051        1.01755
H         -2.77980        0.87230        1.02426
H         -3.50453        0.88084       -1.37049
H         -3.50443       -0.87086       -1.37717
H         -5.29395        0.88037        0.40089
H         -5.29378       -0.88399        0.39435
H         -5.81871        0.00346       -1.03805
