27
58_3.log	Energy: -269225.3565085
C         -1.93134       -1.06609       -0.29512
C         -2.97850       -0.26776       -0.73826
C         -3.02389        1.08008       -0.39465
C         -2.01580        1.61730        0.39714
C         -0.97030        0.81241        0.83822
C         -0.90992       -0.53931        0.49897
C          0.24239       -1.40552        0.93759
C          1.25909       -1.67754       -0.18574
C          1.94010       -0.43264       -0.75532
C          2.82653        0.31647        0.23779
C          3.51805        1.52441       -0.38602
H         -1.90594       -2.11553       -0.56579
H         -3.76235       -0.69788       -1.34966
H         -3.83974        1.70361       -0.73805
H         -2.04229        2.66429        0.67330
H         -0.18874        1.23951        1.45516
H          0.74518       -0.93788        1.78596
H         -0.14177       -2.36597        1.29109
H          2.02130       -2.36328        0.19837
H          0.74752       -2.20466       -0.99619
H          2.55098       -0.73302       -1.61297
H          1.18142        0.25188       -1.14784
H          2.23031        0.64715        1.09229
H          3.57887       -0.37203        0.63796
H          4.15257        1.22636       -1.22512
H          4.14839        2.04432        0.33922
H          2.78577        2.24236       -0.76526
