27
58_4.log	Energy: -269225.1152311
C         -1.60030        0.79573        0.93238
C         -2.63841       -0.05708        1.29406
C         -3.10621       -1.00765        0.39445
C         -2.52914       -1.09585       -0.86896
C         -1.49292       -0.24134       -1.22407
C         -1.01079        0.71689       -0.32917
C          0.14048        1.61067       -0.71340
C          1.49790        0.88951       -0.71676
C          1.93301        0.39589        0.66078
C          3.31115       -0.26928        0.68080
C          3.38528       -1.57206       -0.11226
H         -1.24006        1.53316        1.63998
H         -3.08145        0.02237        2.27924
H         -3.91504       -1.67158        0.67244
H         -2.89002       -1.82940       -1.57951
H         -1.05162       -0.31621       -2.21139
H         -0.03951        2.02021       -1.71108
H          0.18577        2.45866       -0.02519
H          1.44831        0.05153       -1.41663
H          2.25530        1.57713       -1.10739
H          1.93765        1.24560        1.35198
H          1.19091       -0.30946        1.04754
H          4.05810        0.43447        0.29743
H          3.58640       -0.47124        1.72034
H          2.63627       -2.28668        0.24040
H          4.36676       -2.04026       -0.00733
H          3.21197       -1.41084       -1.17800
