27
58_6.log	Energy: -269225.2103415
C          1.97945       -1.16780       -0.30419
C          3.33398       -1.02483       -0.02533
C          3.86722        0.23614        0.21997
C          3.03511        1.34997        0.18195
C          1.68147        1.20079       -0.09802
C          1.13269       -0.05872       -0.34503
C         -0.34235       -0.22093       -0.59893
C         -1.13699       -0.44468        0.69626
C         -2.63362       -0.66997        0.47881
C         -3.38618        0.53815       -0.07717
C         -4.88666        0.29248       -0.20045
H          1.57180       -2.15372       -0.49666
H          3.97431       -1.89816       -0.00282
H          4.92233        0.35020        0.43460
H          3.44129        2.33691        0.36680
H          1.03971        2.07401       -0.12873
H         -0.71872        0.66562       -1.11269
H         -0.50876       -1.07167       -1.26597
H         -0.71453       -1.30955        1.21592
H         -0.98779        0.41456        1.35848
H         -2.77688       -1.52459       -0.19263
H         -3.08647       -0.95369        1.43469
H         -3.20860        1.39989        0.57552
H         -2.98518        0.80822       -1.05786
H         -5.32900        0.05748        0.77146
H         -5.09418       -0.54748       -0.86908
H         -5.40414        1.16850       -0.59827
