27
58_7.log	Energy: -269225.2250177
C         -1.89698       -1.17233       -0.30688
C         -3.13833       -0.82956       -0.83089
C         -3.67851        0.42757       -0.58148
C         -2.96787        1.33554        0.19646
C         -1.72701        0.98707        0.71771
C         -1.17232       -0.27063        0.47434
C          0.19366       -0.62673        0.99733
C          1.31692       -0.24226        0.02524
C          2.70306       -0.60369        0.55335
C          3.84619       -0.30201       -0.41845
C          4.03223        1.18236       -0.72338
H         -1.48382       -2.15518       -0.50308
H         -3.68580       -1.54568       -1.43145
H         -4.64635        0.69580       -0.98603
H         -3.38187        2.31542        0.40048
H         -1.18052        1.69926        1.32550
H          0.36277       -0.12239        1.95274
H          0.24279       -1.70162        1.19165
H          1.14799       -0.74552       -0.93267
H          1.25513        0.83049       -0.17494
H          2.88044       -0.07036        1.49450
H          2.71865       -1.67091        0.79822
H          4.77580       -0.69800        0.00135
H          3.67575       -0.84724       -1.35306
H          4.90025        1.34495       -1.36643
H          4.18852        1.75411        0.19592
H          3.16405        1.60491       -1.23274
