25
59_1.log	Energy: -268462.7003911
C          1.11179        1.08709       -0.00983
C          2.48161        1.31574       -0.00923
C          3.37178        0.24560       -0.00006
C          2.87650       -1.05240        0.00825
C          1.50300       -1.27510        0.00745
C          0.59819       -0.21320       -0.00152
C         -0.88613       -0.47039       -0.00117
C         -1.65467        0.11451        1.19756
C         -3.13570        0.06086        0.77659
C         -3.13440        0.00727       -0.77630
C         -1.65967        0.11590       -1.19444
H          0.43391        1.93194       -0.01703
H          2.85665        2.33189       -0.01592
H          4.43973        0.42388        0.00050
H          3.55809       -1.89419        0.01532
H          1.12473       -2.29089        0.01391
H         -1.03896       -1.55440       -0.00347
H         -1.45282       -0.42620        2.12332
H         -1.34055        1.14960        1.35125
H         -3.61818       -0.82841        1.18550
H         -3.68768        0.92190        1.15537
H         -3.74112        0.79832       -1.21866
H         -3.55128       -0.94164       -1.11916
H         -1.37694        1.16361       -1.32489
H         -1.43943       -0.40074       -2.12986
