25
59_2.log	Energy: -268462.7003842
C         -1.50300       -1.27509        0.00736
C         -2.87650       -1.05241        0.00819
C         -3.37178        0.24560       -0.00003
C         -2.48162        1.31574       -0.00914
C         -1.11179        1.08710       -0.00978
C         -0.59819       -0.21319       -0.00154
C          0.88613       -0.47040       -0.00122
C          1.65967        0.11601       -1.19443
C          3.13440        0.00736       -0.77630
C          3.13571        0.06080        0.77660
C          1.65468        0.11437        1.19758
H         -1.12471       -2.29088        0.01374
H         -3.55808       -1.89420        0.01520
H         -4.43974        0.42387        0.00056
H         -2.85666        2.33189       -0.01576
H         -0.43394        1.93197       -0.01695
H          1.03893       -1.55442       -0.00364
H          1.43945       -0.40053       -2.12990
H          1.37693        1.16373       -1.32477
H          3.55129       -0.94152       -1.11924
H          3.74112        0.79846       -1.21857
H          3.68766        0.92182        1.15545
H          3.61822       -0.82849        1.18541
H          1.34054        1.14943        1.35139
H          1.45284       -0.42646        2.12328
