25
59_3.log	Energy: -268461.7725506
C          1.49022       -1.24759       -0.20944
C          2.79128       -0.85568        0.07741
C          3.09027        0.49112        0.25858
C          2.07583        1.43349        0.14470
C          0.77426        1.03489       -0.14534
C          0.45718       -0.31258       -0.32456
C         -0.95055       -0.80206       -0.59181
C         -1.68351       -1.15827        0.72299
C         -2.22155        0.18496        1.22318
C         -2.63563        0.94131       -0.05797
C         -1.89877        0.23587       -1.22751
H          1.26745       -2.29911       -0.35125
H          3.57335       -1.60102        0.15579
H          4.10350        0.80151        0.48061
H          2.29549        2.48555        0.27973
H          0.00469        1.78964       -0.23564
H         -0.87147       -1.68710       -1.22540
H         -2.51427       -1.83093        0.49076
H         -1.03756       -1.66126        1.44353
H         -3.04634        0.06818        1.92740
H         -1.42881        0.72741        1.74238
H         -2.37670        1.99904        0.00580
H         -3.71543        0.89029       -0.20603
H         -1.36872        0.93541       -1.87377
H         -2.61938       -0.29033       -1.85516
