25
59_5.log	Energy: -268462.7004532
C         -1.11156        1.08702       -0.01147
C         -2.48134        1.31592       -0.01069
C         -3.37169        0.24595       -0.00001
C         -2.87664       -1.05213        0.00960
C         -1.50317       -1.27508        0.00858
C         -0.59818       -0.21335       -0.00187
C          0.88610       -0.47078       -0.00157
C          1.66015        0.11594       -1.19419
C          3.13415        0.00281       -0.77603
C          3.13570        0.06629        0.77636
C          1.65423        0.11326        1.19805
H         -0.43351        1.93172       -0.01984
H         -2.85618        2.33213       -0.01843
H         -4.43961        0.42442        0.00070
H         -3.55837       -1.89379        0.01783
H         -1.12508       -2.29093        0.01602
H          1.03873       -1.55481       -0.00477
H          1.43859       -0.39858       -2.13048
H          1.38004        1.16465       -1.32261
H          3.54526       -0.95095       -1.11254
H          3.74543        0.78731       -1.22377
H          3.68138        0.93415        1.14867
H          3.62526       -0.81631        1.19115
H          1.33661        1.14671        1.35522
H          1.45475       -0.43089        2.12230
