25
59_6.log	Energy: -268462.7003829
C         -1.50299       -1.27509        0.00736
C         -2.87650       -1.05241        0.00817
C         -3.37179        0.24559       -0.00005
C         -2.48163        1.31573       -0.00913
C         -1.11180        1.08711       -0.00974
C         -0.59819       -0.21319       -0.00152
C          0.88613       -0.47039       -0.00119
C          1.65965        0.11598       -1.19443
C          3.13439        0.00745       -0.77632
C          3.13572        0.06070        0.77659
C          1.65470        0.11441        1.19757
H         -1.12471       -2.29088        0.01374
H         -3.55807       -1.89420        0.01516
H         -4.43975        0.42385        0.00052
H         -2.85667        2.33188       -0.01574
H         -0.43395        1.93197       -0.01688
H          1.03894       -1.55440       -0.00355
H          1.43944       -0.40063       -2.12988
H          1.37685        1.16367       -1.32485
H          3.55142       -0.94133       -1.11938
H          3.74100        0.79868       -1.21851
H          3.68781        0.92158        1.15557
H          3.61808       -0.82873        1.18527
H          1.34066        1.14952        1.35131
H          1.45283       -0.42633        2.12331
