12
5_1.log	Energy: -434234.0678370
C         -0.17664        1.21146       -0.00002
C         -1.56690        1.20295        0.00002
C         -2.26422       -0.00000        0.00007
C         -1.56689       -1.20295        0.00007
C         -0.17664       -1.21146        0.00003
C          0.50065        0.00000       -0.00001
Cl         2.25361       -0.00000       -0.00007
H          0.37212        2.14296       -0.00006
H         -2.10273        2.14347        0.00001
H         -3.34640       -0.00000        0.00009
H         -2.10272       -2.14347        0.00011
H          0.37213       -2.14295        0.00003
