19
60_1.log	Energy: -289475.0534763
C         -1.20322        1.22977       -0.01086
C         -2.58770        1.17106       -0.00945
C         -3.24027       -0.05898        0.00120
C         -2.49088       -1.23004        0.01026
C         -1.10361       -1.17787        0.00955
C         -0.43905        0.05481       -0.00057
C          1.01172        0.12855        0.00048
C          1.89984        1.16687        0.01627
C          3.20798        0.59504        0.00915
C          3.03468       -0.74989       -0.01012
O          1.70728       -1.05182       -0.01552
H         -0.70710        2.19130       -0.02147
H         -3.16153        2.08921       -0.01741
H         -4.32181       -0.10251        0.00207
H         -2.98828       -2.19177        0.01844
H         -0.52965       -2.09402        0.01763
H          1.65298        2.21491        0.03341
H          4.14936        1.11888        0.01769
H          3.71082       -1.58736       -0.02168
