19
62_1.log	Energy: -492151.3165338
C         -1.33609       -1.11312        0.25884
C         -2.72098       -1.20105        0.23845
C         -3.49283       -0.07052       -0.00545
C         -2.86358        1.14898       -0.23522
C         -1.47941        1.23758       -0.22471
C         -0.68960        0.10759        0.02776
C          0.76967        0.21831        0.04789
C          1.53886        1.33308        0.27777
C          2.93392        1.08187        0.21921
C          3.22309       -0.22303       -0.05804
S          1.79285       -1.15607       -0.25090
H         -0.75216       -1.99941        0.47347
H         -3.19822       -2.15550        0.42157
H         -4.57297       -0.13898       -0.01867
H         -3.45345        2.03489       -0.43446
H         -1.00313        2.18692       -0.42994
H          1.11488        2.30116        0.50281
H          3.68996        1.83714        0.38135
H          4.19119       -0.68721       -0.16062
