28
63_3.log	Energy: -293148.2839256
C          1.62202        1.17962        0.33616
C          2.90842        0.98498       -0.14708
C          3.33155       -0.28783       -0.51795
C          2.45383       -1.35488       -0.38643
C          1.16496       -1.15255        0.10106
C          0.71808        0.11832        0.46392
C         -0.66953        0.39380        1.03176
C         -1.41726        1.49007        0.24216
C         -1.94229        0.98835       -1.10171
C         -2.87321       -0.20875       -0.91240
C         -2.16959       -1.33232       -0.15140
C         -1.57970       -0.83743        1.17377
H          1.31753        2.17671        0.62944
H          3.58369        1.82782       -0.23063
H          4.33329       -0.44377       -0.89801
H          2.76824       -2.35401       -0.66265
H          0.51143       -2.00676        0.19874
H         -0.50258        0.78791        2.03999
H         -0.77401        2.35903        0.09791
H         -2.26404        1.82639        0.84967
H         -2.46399        1.79743       -1.61962
H         -1.10024        0.69790       -1.73889
H         -3.22767       -0.57450       -1.87970
H         -3.75898        0.11217       -0.35190
H         -2.86741       -2.15052        0.04649
H         -1.38123       -1.74296       -0.78677
H         -2.40710       -0.55469        1.83225
H         -1.05064       -1.64642        1.68259
