22
64_1.log	Energy: -290873.0064571
C         -1.45885       -1.13987        0.37715
C         -2.84747       -1.14001        0.37776
C         -3.54876        0.00000        0.00013
C         -2.84750        1.14001       -0.37755
C         -1.45888        1.13987       -0.37706
C         -0.74011       -0.00000        0.00002
C          0.74011       -0.00000       -0.00003
C          1.45886       -1.13987       -0.37718
C          2.84748       -1.14000       -0.37777
C          3.54876        0.00000       -0.00012
C          2.84750        1.14000        0.37757
C          1.45888        1.13987        0.37707
H         -0.92513       -2.02696        0.69269
H         -3.38308       -2.03089        0.68128
H         -4.63138        0.00000        0.00018
H         -3.38313        2.03088       -0.68104
H         -0.92518        2.02695       -0.69265
H          0.92514       -2.02694       -0.69273
H          3.38309       -2.03087       -0.68129
H          4.63138        0.00001       -0.00015
H          3.38313        2.03088        0.68107
H          0.92517        2.02694        0.69266
