22
66_1.log	Energy: -353173.2083006
C         -1.89255        1.13986        0.37737
C         -3.28115        1.14016        0.37706
C         -3.98241        0.00000       -0.00000
C         -3.28115       -1.14016       -0.37706
C         -1.89255       -1.13986       -0.37737
C         -1.17406       -0.00000       -0.00000
C          0.30589       -0.00000       -0.00000
C          1.02496       -1.14022        0.37512
C          2.41330       -1.14966        0.37851
C          3.07988        0.00000        0.00000
F          4.43712        0.00000        0.00000
C          2.41330        1.14966       -0.37851
C          1.02496        1.14021       -0.37512
H         -1.35917        2.02689        0.69382
H         -3.81669        2.03120        0.68014
H         -5.06499        0.00000       -0.00000
H         -3.81669       -2.03119       -0.68014
H         -1.35917       -2.02689       -0.69381
H          0.49436       -2.02894        0.68950
H          2.97169       -2.02672        0.67691
H          2.97169        2.02672       -0.67691
H          0.49436        2.02894       -0.68951
