22
67_1.log	Energy: -353173.3929565
C          1.65192       -1.11925       -0.47529
C          3.02868       -1.29620       -0.44459
C          3.85375       -0.28866        0.04319
C          3.28920        0.89765        0.49902
C          1.91250        1.07544        0.46618
C          1.07104        0.06960       -0.02122
C         -0.39666        0.25944       -0.05628
C         -0.95597        1.51037       -0.34123
C         -2.33305        1.68388       -0.37551
C         -3.19040        0.61769       -0.12604
C         -2.62027       -0.60983        0.15219
F         -3.43823       -1.66356        0.40832
C         -1.25641       -0.81576        0.19331
H          1.02208       -1.90261       -0.87613
H          3.45829       -2.22072       -0.80943
H          4.92709       -0.42720        0.06825
H          3.92188        1.68510        0.88900
H          1.48379        1.99476        0.84304
H         -0.30771        2.34795       -0.55911
H         -2.74706        2.65692       -0.60633
H         -4.26585        0.72850       -0.14579
H         -0.87441       -1.79684        0.43930
