22
68_1.log	Energy: -579295.7567830
C          2.32625        1.14184       -0.37243
C          3.71473        1.14177       -0.37282
C          4.41566       -0.00000        0.00002
C          3.71472       -1.14177        0.37284
C          2.32624       -1.14184        0.37242
C          1.60833        0.00000       -0.00001
C          0.12908        0.00000       -0.00002
C         -0.59143       -1.14017       -0.37074
C         -1.97879       -1.14842       -0.37379
C         -2.66148        0.00000       -0.00000
Cl        -4.41244       -0.00000        0.00001
C         -1.97879        1.14842        0.37378
C         -0.59143        1.14017        0.37072
H          1.79281        2.03021       -0.68481
H          4.25046        2.03378       -0.67251
H          5.49824       -0.00000        0.00004
H          4.25044       -2.03379        0.67253
H          1.79279       -2.03021        0.68478
H         -0.06322       -2.03131       -0.68265
H         -2.52267       -2.03430       -0.67110
H         -2.52266        2.03430        0.67109
H         -0.06321        2.03132        0.68263
