22
69_1.log	Energy: -579295.7315012
C         -2.35811        0.95712        0.53821
C         -3.70244        0.61336        0.58740
C         -4.13410       -0.60270        0.06903
C         -3.20878       -1.47229       -0.49785
C         -1.86411       -1.12940       -0.54543
C         -1.41677        0.09135       -0.02894
C          0.01562        0.46089       -0.08176
C          0.41162        1.78259       -0.31246
C          1.75609        2.12253       -0.36221
C          2.74015        1.15750       -0.18385
C          2.34197       -0.15157        0.04430
Cl         3.56303       -1.38692        0.28287
C          1.00514       -0.51101        0.09823
H         -2.03178        1.89732        0.96324
H         -4.41331        1.29444        1.03817
H         -5.18237       -0.87028        0.10652
H         -3.53523       -2.41831       -0.91121
H         -1.15767       -1.80640       -1.00787
H         -0.33813        2.54491       -0.47510
H          2.04602        3.14843       -0.54971
H          3.78921        1.41473       -0.22151
H          0.73419       -1.53734        0.30057
