12
6_1.log	Energy: -1760761.3864697
C         -0.78468        1.21181        0.00002
C         -2.17540        1.20311       -0.00002
C         -2.87235        0.00000       -0.00008
C         -2.17541       -1.20310       -0.00009
C         -0.78468       -1.21182       -0.00006
C         -0.10846       -0.00001       -0.00000
Br         1.80753        0.00000        0.00005
H         -0.24024        2.14563        0.00005
H         -2.71125        2.14368        0.00000
H         -3.95460        0.00001       -0.00012
H         -2.71127       -2.14367       -0.00013
H         -0.24026       -2.14565       -0.00007
