22
70_1.log	Energy: -1905823.0885080
C          3.05995       -1.14213       -0.37177
C          4.44841       -1.14200       -0.37226
C          5.14926       -0.00000        0.00001
C          4.44840        1.14200        0.37227
C          3.05995        1.14213        0.37176
C          2.34222        0.00000       -0.00001
C          0.86300        0.00000       -0.00001
C          0.14260        1.14031       -0.36988
C         -1.24535        1.14899       -0.37292
C         -1.92707       -0.00000       -0.00000
Br        -3.84170       -0.00000        0.00001
C         -1.24535       -1.14899        0.37291
C          0.14261       -1.14031        0.36986
H          2.52651       -2.03068       -0.68361
H          4.98416       -2.03415       -0.67147
H          6.23183       -0.00000        0.00002
H          4.98415        2.03415        0.67148
H          2.52651        2.03068        0.68360
H          0.67037        2.03191       -0.68141
H         -1.78307        2.03837       -0.67034
H         -1.78307       -2.03837        0.67032
H          0.67038       -2.03191        0.68139
