22
71_1.log	Energy: -1905823.0898508
C          3.05537        0.81371        0.59238
C          4.34631        0.30617        0.65385
C          4.64110       -0.92932        0.08762
C          3.63311       -1.65330       -0.53976
C          2.34148       -1.14708       -0.59931
C          2.03213        0.09484       -0.03477
C          0.65696        0.63849       -0.09960
C          0.43056        2.00506       -0.29238
C         -0.86082        2.50877       -0.35393
C         -1.95937        1.66640       -0.22486
C         -1.72800        0.31249       -0.03317
Br        -3.22464       -0.87020        0.16087
C         -0.44731       -0.21092        0.03172
H          2.83358        1.76692        1.05439
H          5.12221        0.87396        1.15186
H          5.64787       -1.32435        0.13483
H          3.85389       -2.61236       -0.99125
H          1.57046       -1.71077       -1.10852
H          1.27125        2.67406       -0.41652
H         -1.02022        3.56768       -0.51245
H         -2.96561        2.05710       -0.27383
H         -0.30022       -1.26730        0.20447
