21
72_1.log	Energy: -300939.2705830
C         -1.44952        1.15236        0.34261
C         -2.83769        1.15121        0.34546
C         -3.53730        0.00000        0.00000
C         -2.83769       -1.15121       -0.34545
C         -1.44952       -1.15236       -0.34261
C         -0.73444        0.00000       -0.00000
C          0.74317        0.00000       -0.00000
C          1.47641       -1.13279        0.36201
C          2.86196       -1.08374        0.34637
N          3.56097       -0.00000        0.00000
C          2.86196        1.08374       -0.34637
C          1.47641        1.13279       -0.36201
H         -0.91506        2.04831        0.62999
H         -3.37419        2.04964        0.62330
H         -4.61987       -0.00000        0.00000
H         -3.37419       -2.04964       -0.62330
H         -0.91506       -2.04831       -0.63000
H          0.97686       -2.04008        0.67317
H          3.43772       -1.95769        0.63180
H          3.43773        1.95769       -0.63180
H          0.97686        2.04008       -0.67317
