21
73_1.log	Energy: -300938.7076662
C          1.44725        1.15065       -0.36140
C          2.83556        1.14567       -0.36435
C          3.53240       -0.00177       -0.00090
C          2.82894       -1.14382        0.36602
C          1.44039       -1.13936        0.36939
C          0.72782        0.00816        0.00505
C         -0.74935        0.01518        0.00615
C         -1.48347        1.13671        0.39661
C         -2.86830        1.08670        0.37823
C         -3.48922       -0.08702       -0.02786
N         -2.80951       -1.16991       -0.41150
C         -1.47917       -1.10954       -0.39396
H          0.91468        2.04254       -0.66565
H          3.37440        2.03775       -0.65802
H          4.61495       -0.00562       -0.00311
H          3.36253       -2.03948        0.65829
H          0.90356       -2.02697        0.67804
H         -0.97315        2.03146        0.72899
H         -3.46043        1.93950        0.68294
H         -4.57083       -0.16196       -0.04680
H         -0.95621       -1.99726       -0.73205
