21
74_2.log	Energy: -300940.0135410
C          1.41962       -1.16919       -0.24544
C          2.80695       -1.18794       -0.25645
C          3.52598       -0.02288       -0.00872
C          2.84428        1.16075        0.25113
C          1.45577        1.18144        0.25642
C          0.72259        0.01716        0.00551
C         -0.75972        0.02085        0.00381
C         -1.49273        1.17925       -0.27580
C         -2.87715        1.12664       -0.26356
C         -3.50372       -0.07927        0.02051
C         -2.70170       -1.18426        0.27348
N         -1.37128       -1.14399        0.26741
H          0.85934       -2.07388       -0.43526
H          3.32926       -2.11434       -0.46034
H          4.60853       -0.03819       -0.01425
H          3.39432        2.07023        0.45772
H          0.94339        2.10708        0.48188
H         -0.98715        2.10247       -0.51967
H         -3.45807        2.01377       -0.48197
H         -4.58154       -0.16705        0.04068
H         -3.15008       -2.14748        0.49390
