20
75_1.log	Energy: -311009.4098276
C          1.41530        1.20444       -0.00004
C          2.80272        1.20286       -0.00000
C          3.50174       -0.00000        0.00000
C          2.80271       -1.20286       -0.00004
C          1.41530       -1.20443       -0.00008
C          0.70453        0.00001       -0.00009
C         -0.77733        0.00001       -0.00013
N         -1.40216       -1.18507        0.00004
C         -2.73167       -1.17664        0.00022
C         -3.46515        0.00000        0.00018
C         -2.73169        1.17663        0.00001
N         -1.40216        1.18506       -0.00012
H          0.86962        2.13682       -0.00005
H          3.34071        2.14240        0.00003
H          4.58451       -0.00001        0.00004
H          3.34070       -2.14240       -0.00005
H          0.86960       -2.13681       -0.00012
H         -3.22396       -2.14339        0.00027
H         -4.54573       -0.00001        0.00030
H         -3.22396        2.14339       -0.00003
