25
76_1.log	Energy: -315553.6249635
C          1.54699        1.18259       -0.09097
C          2.69096        1.24338       -0.87524
C          3.56858        0.16322       -0.91787
C          3.29173       -0.97332       -0.16858
C          2.14461       -1.02866        0.61798
C          1.25916        0.04594        0.66728
C          0.00056       -0.01978        1.50389
C         -1.25910       -0.06330        0.66759
C         -1.55396       -1.18513       -0.10973
C         -2.69811       -1.22548       -0.89506
C         -3.56879       -0.13917       -0.91960
C         -3.28498        0.98279       -0.15112
C         -2.13783        1.01755        0.63656
H          0.86467        2.02413       -0.06944
H          2.89953        2.13400       -1.45514
H          4.46040        0.20940       -1.53004
H          3.96813       -1.81881       -0.19366
H          1.93439       -1.91700        1.20191
H          0.04667       -0.90516        2.14131
H         -0.04426        0.84826        2.16485
H         -0.87701       -2.03128       -0.10199
H         -2.91229       -2.10494       -1.48975
H         -4.46079       -0.16943       -1.53250
H         -3.95613        1.83276       -0.16198
H         -1.92231        1.89435        1.23579
