25
76_3.log	Energy: -315553.6244465
C          2.14147        1.02252        0.62827
C          3.28872        0.97797       -0.15876
C          3.56895       -0.15070       -0.91867
C          2.69459       -1.23382       -0.88620
C          1.55040       -1.18374       -0.10147
C          1.25916       -0.05512        0.66735
C         -0.00003       -0.00106        1.50379
C         -1.25916        0.05420        0.66733
C         -2.14183       -1.02312        0.62728
C         -3.28908       -0.97746       -0.15969
C         -3.56894        0.15199       -0.91858
C         -2.69421        1.23478       -0.88514
C         -1.55002        1.18361       -0.10047
H          1.92862        1.90462        1.22066
H          3.96266        1.82562       -0.17588
H          4.46097       -0.18855       -1.53112
H          2.90587       -2.11841       -1.47430
H          0.87059       -2.02750       -0.08770
H         -0.04558       -0.87828        2.15244
H          0.04546        0.87524        2.15370
H         -1.92927       -1.90583        1.21885
H         -3.96330       -1.82487       -0.17757
H         -4.46095        0.19068       -1.53099
H         -2.90518        2.11996       -1.47245
H         -0.86993        2.02712       -0.08596
