25
76_5.log	Energy: -315553.6267896
C          1.55905        1.18681        0.12303
C          2.70322        1.21242        0.90896
C          3.56878        0.12184        0.92061
C          3.27996       -0.98946        0.13861
C          2.13286       -1.00941       -0.64966
C          1.25906        0.07575       -0.66768
C         -0.00133        0.04818       -1.50341
C         -1.25918       -0.03338       -0.66684
C         -1.54199       -1.18052        0.07741
C         -2.68581       -1.25608        0.86060
C         -3.56837       -0.18053        0.91630
C         -3.29644        0.96637        0.18119
C         -2.14939        1.03654       -0.60432
H          0.88608        2.03618        0.12513
H          2.92145        2.08374        1.51408
H          4.46082        0.14063        1.53392
H          3.94721       -1.84256        0.13929
H          1.91363       -1.87785       -1.25962
H         -0.04820        0.94559       -2.12368
H          0.04236       -0.80706       -2.18098
H         -0.85588       -2.01863        0.04593
H         -2.89036       -2.15466        1.42956
H         -4.46002       -0.23823        1.52773
H         -3.97651        1.80854        0.21660
H         -1.94303        1.93315       -1.17686
