28
77_1.log	Energy: -340240.1207412
C          2.30547       -1.17928        0.33589
C          3.69021       -1.22056        0.43155
C          4.44522       -0.08071        0.17673
C          3.80069        1.10050       -0.17461
C          2.41593        1.14094       -0.27042
C          1.64284        0.00210       -0.01675
C          0.16740        0.04582       -0.11768
C         -0.55049        1.18342        0.26562
C         -1.93416        1.22260        0.16891
C         -2.65668        0.13181       -0.31539
C         -4.16120        0.15905       -0.37399
C         -4.80650       -0.35176        0.91863
C         -1.94098       -1.00231       -0.70037
C         -0.55751       -1.04726       -0.60376
H          1.72888       -2.06791        0.55788
H          4.18046       -2.14404        0.71371
H          5.52476       -0.11262        0.25134
H          4.37823        1.99247       -0.38343
H          1.92878        2.06114       -0.56580
H         -0.02146        2.04108        0.66101
H         -2.46403        2.11583        0.47965
H         -4.50301       -0.45249       -1.21264
H         -4.49921        1.18037       -0.56562
H         -4.50806       -1.38231        1.12293
H         -4.50468        0.25818        1.77288
H         -5.89622       -0.32161        0.84810
H         -2.47472       -1.86061       -1.09230
H         -0.03120       -1.93366       -0.93388
