28
77_2.log	Energy: -340239.2527130
C          2.44475        1.07965        0.41756
C          3.83028        0.98990        0.44272
C          4.46461       -0.18263        0.04660
C          3.69854       -1.26406       -0.37519
C          2.31314       -1.17337       -0.40068
C          1.66055       -0.00031       -0.00427
C          0.18454        0.09526       -0.02980
C         -0.45853        1.29242       -0.36913
C         -1.84029        1.37840       -0.39216
C         -2.64644        0.27997       -0.07704
C         -4.15081        0.42916       -0.11774
C         -4.96061       -0.80754        0.24915
C         -2.00664       -0.91055        0.26140
C         -0.61913       -1.00204        0.28373
H          1.96380        1.99080        0.74910
H          4.41572        1.83612        0.78029
H          5.54474       -0.25288        0.06614
H          4.18147       -2.17950       -0.69383
H          1.72994       -2.01478       -0.75169
H          0.13213        2.15853       -0.63880
H         -2.30852        2.31681       -0.66804
H         -4.43398        0.75869       -1.12279
H         -4.43077        1.25250        0.54740
H         -6.02811       -0.58826        0.18791
H         -4.75455       -1.64036       -0.42672
H         -4.74901       -1.14100        1.26745
H         -2.58884       -1.78423        0.52110
H         -0.15777       -1.93807        0.57162
