34
78_1.log	Energy: -389604.0958439
C         -3.04637        1.14490        0.36118
C         -4.43494        1.13688        0.36332
C         -5.13032       -0.01252        0.00335
C         -4.42221       -1.15336       -0.35890
C         -3.03360       -1.14441       -0.36142
C         -2.32009        0.00471       -0.00160
C         -0.84103        0.01395       -0.00500
C         -0.10619       -1.11924        0.36230
C          1.27880       -1.10666        0.35894
C          2.00380        0.03160       -0.01152
C          3.53373        0.00133        0.00006
C          4.14594        1.33364       -0.44451
C          4.02919       -1.10078       -0.95376
C          4.02551       -0.30452        1.42662
C          1.26802        1.15817       -0.37793
C         -0.12225        1.15146       -0.37452
H         -2.51789        2.03946        0.66414
H         -4.97535        2.02894        0.65489
H         -6.21292       -0.01914        0.00531
H         -4.95271       -2.05200       -0.64842
H         -2.49538       -2.03266       -0.66585
H         -0.62589       -2.01572        0.67555
H          1.80395       -2.00409        0.65943
H          3.85489        1.59366       -1.46408
H          5.23476        1.25970       -0.41987
H          3.85493        2.15391        0.21446
H          3.66377       -2.08443       -0.65645
H          5.12127       -1.13518       -0.95541
H          3.69315       -0.91112       -1.97539
H          3.65979       -1.26919        1.78065
H          3.68703        0.46172        2.12730
H          5.11757       -0.33019        1.45157
H          1.77404        2.06329       -0.68119
H         -0.65275        2.04217       -0.68620
