24
79_1.log	Energy: -325622.8562842
C         -1.49330        0.86082       -0.49495
C         -2.78365        1.37399       -0.51707
C         -3.86561        0.61626       -0.08297
C         -3.63868       -0.67881        0.37401
C         -2.35425       -1.19792        0.41291
C         -1.25920       -0.43516       -0.01848
N          0.00005       -1.02556       -0.00099
C          1.25922       -0.43506        0.01762
C          1.49287        0.86105        0.49394
C          2.78320        1.37426        0.51708
C          3.86557        0.61648        0.08412
C          3.63907       -0.67871       -0.37275
C          2.35470       -1.19788       -0.41263
H         -0.67576        1.45719       -0.87116
H         -2.94184        2.37776       -0.89206
H         -4.86749        1.02421       -0.10529
H         -4.46716       -1.28897        0.71205
H         -2.18411       -2.20255        0.78212
H          0.00010       -2.03312       -0.00068
H          0.67500        1.45755        0.86923
H          2.94101        2.37813        0.89196
H          4.86741        1.02445        0.10723
H          4.46786       -1.28894       -0.70991
H          2.18493       -2.20261       -0.78173
