24
79_2.log	Energy: -325622.8562729
C         -1.49336        0.86099        0.49461
C         -2.78376        1.37413        0.51671
C         -3.86572        0.61626        0.08296
C         -3.63875       -0.67898       -0.37369
C         -2.35437       -1.19807       -0.41253
C         -1.25918       -0.43512        0.01851
N          0.00001       -1.02544        0.00099
C          1.25926       -0.43502       -0.01774
C          1.49301        0.86115       -0.49380
C          2.78338        1.37435       -0.51677
C          3.86567        0.61643       -0.08395
C          3.63909       -0.67890        0.37267
C          2.35474       -1.19802        0.41241
H         -0.67576        1.45751        0.87047
H         -2.94191        2.37800        0.89147
H         -4.86765        1.02410        0.10514
H         -4.46733       -1.28918       -0.71145
H         -2.18415       -2.20286       -0.78132
H          0.00003       -2.03300       -0.00126
H          0.67511        1.45771       -0.86894
H          2.94124        2.37826       -0.89153
H          4.86758        1.02429       -0.10679
H          4.46794       -1.28911        0.70974
H          2.18479       -2.20283        0.78124
