26
80_1.log	Energy: -362771.4678103
C          2.28543       -1.17439       -0.38473
C          3.67130       -1.25747       -0.36046
C          4.43308       -0.16530        0.04103
C          3.79276        1.00995        0.41904
C          2.40667        1.09130        0.39757
C          1.62608        0.00081       -0.00473
C          0.15016        0.08785       -0.02677
C         -0.64736       -1.01172        0.29266
C         -2.03613       -0.94108        0.27782
C         -2.66261        0.25578       -0.06631
O         -4.00872        0.43440       -0.11305
C         -4.84800       -0.67256        0.19759
C         -1.88156        1.36791       -0.39079
C         -0.50242        1.28088       -0.36864
H          1.70689       -2.02453       -0.72231
H          4.15812       -2.17553       -0.66551
H          5.51363       -0.22920        0.05854
H          4.37409        1.86526        0.74059
H          1.92263        2.00519        0.71694
H         -0.18077       -1.94427        0.58274
H         -2.61276       -1.81474        0.54324
H         -4.68736       -1.50008       -0.49869
H         -4.68586       -1.01917        1.22169
H         -5.86881       -0.31025        0.09742
H         -2.37583        2.29051       -0.66679
H          0.08136        2.14978       -0.64322
