24
81_2.log	Energy: -362020.2960831
C          1.41457       -0.86956       -0.67889
C          2.64872       -1.50404       -0.74140
C          3.76091       -0.92514       -0.14096
C          3.64240        0.30103        0.50862
C          2.41682        0.94696        0.55123
C          1.28911        0.36216       -0.03202
C          0.00001        1.11190       -0.00010
O         -0.00005        2.33386       -0.00009
C         -1.28914        0.36214        0.03187
C         -2.41693        0.94700       -0.55107
C         -3.64251        0.30101       -0.50830
C         -3.76089       -0.92522        0.14113
C         -2.64857       -1.50418        0.74130
C         -1.41443       -0.86966        0.67863
H          0.55464       -1.32095       -1.15378
H          2.74160       -2.45020       -1.25890
H          4.71988       -1.42609       -0.18100
H          4.50756        0.75250        0.97708
H          2.31559        1.90625        1.04073
H         -2.31587        1.90634       -1.04050
H         -4.50775        0.75262       -0.97650
H         -4.71981       -1.42626        0.18130
H         -2.74135       -2.45045        1.25863
H         -0.55445       -1.32107        1.15339
