23
82_1.log	Energy: -338087.3520600
C         -2.25385       -1.04750       -0.68296
C         -3.50001       -0.43550       -0.62042
C         -3.68632        0.70414        0.15466
C         -2.61706        1.22480        0.87677
C         -1.36801        0.61804        0.82900
C         -1.19435       -0.51591        0.04165
O          0.00004       -1.20362        0.00025
C          1.19437       -0.51584       -0.04143
C          2.25418       -1.04765        0.68259
C          3.50029       -0.43561        0.61979
C          3.68628        0.70432       -0.15496
C          2.61673        1.22520       -0.87647
C          1.36771        0.61839       -0.82845
H         -2.09102       -1.93253       -1.28388
H         -4.32543       -0.85009       -1.18513
H         -4.65661        1.18125        0.19847
H         -2.75435        2.10677        1.48961
H         -0.53838        1.01811        1.39565
H          2.09160       -1.93291        1.28326
H          4.32594       -0.85038        1.18403
H          4.65654        1.18147       -0.19897
H          2.75376        2.10739       -1.48905
H          0.53786        1.01866       -1.39465
