24
83_1.log	Energy: -419260.5536522
C         -2.59884       -1.12831        0.41580
C         -3.98670       -1.12655        0.41877
C         -4.68639        0.00000       -0.00000
C         -3.98669        1.12655       -0.41877
C         -2.59884        1.12831       -0.41580
C         -1.88264       -0.00000       -0.00000
C         -0.40589       -0.00000        0.00000
C          0.31216       -1.16526       -0.30163
C          1.69498       -1.17383       -0.30342
C          2.37274        0.00000       -0.00000
N          3.83412        0.00000       -0.00000
O          4.41307       -1.04870       -0.25662
O          4.41307        1.04870        0.25663
C          1.69497        1.17383        0.30342
C          0.31216        1.16526        0.30163
H         -2.06654       -2.00450        0.76196
H         -4.52292       -2.00519        0.75419
H         -5.76891        0.00000        0.00000
H         -4.52291        2.00520       -0.75419
H         -2.06654        2.00450       -0.76196
H         -0.21914       -2.07069       -0.55966
H          2.24600       -2.07003       -0.54465
H          2.24600        2.07003        0.54465
H         -0.21915        2.07069        0.55966
