24
84_1.log	Energy: -419259.9205843
C          2.62167        0.93073        0.55375
C          3.94910        0.52712        0.60459
C          4.32954       -0.69765        0.06721
C          3.37109       -1.51634       -0.52011
C          2.04314       -1.11443       -0.56892
C          1.64824        0.11589       -0.03343
C          0.23330        0.54582       -0.08566
C         -0.10941        1.88927       -0.28319
C         -1.43634        2.29675       -0.33076
C         -2.46149        1.37463       -0.18394
C         -2.11471        0.04476        0.00857
N         -3.18298       -0.95012        0.17233
O         -4.34212       -0.55919        0.15084
O         -2.86416       -2.12209        0.32073
C         -0.79738       -0.38269        0.06146
H          2.33456        1.87680        0.99381
H          4.68633        1.16788        1.07160
H          5.36463       -1.01197        0.10616
H          3.65848       -2.46852       -0.94774
H          1.31019       -1.75228       -1.04581
H          0.67406        2.62235       -0.42031
H         -1.67380        3.33978       -0.49161
H         -3.49872        1.66955       -0.21896
H         -0.58507       -1.42571        0.23655
