25
85_2.log	Energy: -635201.0694978
C         -1.95746       -0.15954       -1.20360
C         -3.03807       -1.03143       -1.19228
C         -3.54644       -1.49685        0.01611
C         -2.98075       -1.08866        1.22003
C         -1.90058       -0.21669        1.22144
C         -1.39931        0.23881        0.00637
S         -0.00001        1.33451        0.00001
O          0.00633        2.06012        1.25240
O         -0.00643        2.06013       -1.25239
C          1.39931        0.23881       -0.00637
C          1.95747       -0.15955        1.20360
C          3.03810       -1.03141        1.19227
C          3.54649       -1.49681       -0.01612
C          2.98079       -1.08862       -1.22003
C          1.90059       -0.21667       -1.22144
H         -1.55922        0.21760       -2.13489
H         -3.48504       -1.34366       -2.12699
H         -4.38930       -2.17602        0.02002
H         -3.38307       -1.44559        2.15898
H         -1.45931        0.11628        2.15027
H          1.55922        0.21758        2.13489
H          3.48508       -1.34364        2.12698
H          4.38936       -2.17596       -0.02003
H          3.38312       -1.44553       -2.15899
H          1.45932        0.11630       -2.15027
