25
85_3.log	Energy: -635201.0694916
C          1.95806       -0.15888       -1.20341
C          3.03874       -1.03072       -1.19205
C          3.54654       -1.49677        0.01632
C          2.98024       -1.08927        1.22020
C          1.90004       -0.21735        1.22158
C          1.39933        0.23878        0.00649
S          0.00000        1.33448        0.00009
O          0.00649        2.06017       -1.25226
O         -0.00648        2.05999        1.25255
C         -1.39934        0.23878       -0.00646
C         -1.90009       -0.21713       -1.22161
C         -2.98028       -1.08905       -1.22036
C         -3.54654       -1.49677       -0.01653
C         -3.03869       -1.03094        1.19191
C         -1.95802       -0.15910        1.20339
H          1.56023        0.21873       -2.13469
H          3.48617       -1.34241       -2.12672
H          4.38942       -2.17591        0.02030
H          3.38214       -1.44673        2.15914
H          1.45830        0.11513        2.15035
H         -1.45838        0.11553       -2.15034
H         -3.38222       -1.44633       -2.15934
H         -4.38942       -2.17590       -0.02059
H         -3.48609       -1.34280        2.12654
H         -1.56016        0.21835        2.13472
