25
85_4.log	Energy: -635201.0695104
C         -1.90179        0.21570        1.22101
C         -2.98204        1.08760        1.21917
C         -3.54644        1.49681        0.01501
C         -3.03669        1.03249       -1.19323
C         -1.95603        0.16067       -1.20412
C         -1.39917       -0.23875        0.00611
S          0.00002       -1.33456        0.00029
O         -0.00617       -2.06045       -1.25190
O          0.00607       -2.05985        1.25282
C          1.39935       -0.23901       -0.00605
C          1.95603        0.16118        1.20406
C          3.03648        1.03322        1.19280
C          3.54623        1.49705       -0.01566
C          2.98212        1.08696       -1.21965
C          1.90206        0.21480       -1.22112
H         -1.46154       -0.11801        2.15006
H         -3.38540        1.44369        2.15801
H         -4.38937        2.17590        0.01858
H         -3.48264        1.34554       -2.12816
H         -1.55675       -0.21560       -2.13533
H          1.55680       -0.21476        2.13542
H          3.48223        1.34693        2.12760
H          4.38890        2.17644       -0.01952
H          3.38553        1.44256       -2.15864
H          1.46205       -0.11965       -2.15000
