28
86_1.log	Energy: -340237.3863643
C          2.53046        0.78330        0.54328
C          3.35245       -0.32375        0.71686
C          3.14703       -1.47107       -0.04286
C          2.11754       -1.49822       -0.97680
C          1.29875       -0.38741       -1.14656
C          1.49184        0.76816       -0.38935
C          0.56842        1.94860       -0.52442
C         -0.56818        1.94858        0.52458
C         -1.49174        0.76828        0.38939
C         -2.52986        0.78332       -0.54380
C         -3.35199       -0.32361       -0.71745
C         -3.14722       -1.47072        0.04277
C         -2.11823       -1.49778        0.97726
C         -1.29930       -0.38708        1.14708
H          2.69654        1.67367        1.13914
H          4.15519       -0.29052        1.44327
H          3.78639       -2.33472        0.09004
H          1.94936       -2.38627       -1.57346
H          0.49356       -0.41897       -1.87028
H          1.13578        2.87531       -0.41119
H          0.12600        1.95910       -1.52266
H         -0.12572        1.95887        1.52280
H         -1.13543        2.87538        0.41152
H         -2.69543        1.67352       -1.14007
H         -4.15434       -0.29046       -1.44430
H         -3.78668       -2.33429       -0.09019
H         -1.95055       -2.38567        1.57431
H         -0.49449       -0.41856        1.87123
