28
86_4.log	Energy: -340237.3863317
C         -2.53000        0.78324       -0.54411
C         -3.35244       -0.32349       -0.71764
C         -3.14808       -1.47054        0.04283
C         -2.11910       -1.49778        0.97734
C         -1.29983       -0.38727        1.14702
C         -1.49197        0.76805        0.38923
C         -0.56836        1.94837        0.52440
C          0.56834        1.94829       -0.52438
C          1.49194        0.76796       -0.38918
C          1.29955       -0.38751       -1.14670
C          2.11883       -1.49801       -0.97704
C          3.14810       -1.47062       -0.04285
C          3.35274       -0.32342        0.71730
C          2.53027        0.78330        0.54382
H         -2.69524        1.67335       -1.14060
H         -4.15473       -0.29021       -1.44456
H         -3.78783       -2.33393       -0.08995
H         -1.95175       -2.38564        1.57452
H         -0.49497       -0.41887        1.87114
H         -1.13565        2.87510        0.41104
H         -0.12609        1.95879        1.52269
H          0.12598        1.95860       -1.52263
H          1.13566        2.87503       -0.41116
H          0.49454       -0.41921       -1.87063
H          1.95127       -2.38597       -1.57402
H          3.78784       -2.33403        0.08991
H          4.15524       -0.29001        1.44398
H          2.69580        1.67355        1.14001
