28
86_5.log	Energy: -340237.3863881
C          1.29917       -0.38739        1.14655
C          2.11839       -1.49803        0.97687
C          3.14777       -1.47063        0.04294
C          3.35267       -0.32329       -0.71708
C          2.53034        0.78343       -0.54360
C          1.49180        0.76808        0.38928
C          0.56834        1.94851        0.52437
C         -0.56851        1.94853       -0.52424
C         -1.49194        0.76808       -0.38917
C         -1.29884       -0.38755       -1.14624
C         -2.11787       -1.49825       -0.97665
C         -3.14761       -1.47087       -0.04301
C         -3.35298       -0.32349        0.71669
C         -2.53074        0.78340        0.54330
H          0.49399       -0.41926        1.87029
H          1.95047       -2.38601        1.57372
H          3.78750       -2.33402       -0.08997
H          4.15534       -0.28999       -1.44357
H          2.69595        1.67377       -1.13965
H          0.12621        1.95908        1.52273
H          1.13570        2.87520        0.41089
H         -1.13584        2.87523       -0.41076
H         -0.12638        1.95912       -1.52259
H         -0.49344       -0.41926       -1.86974
H         -1.94969       -2.38633       -1.57326
H         -3.78721       -2.33438        0.08973
H         -4.15588       -0.29012        1.44293
H         -2.69680        1.67378        1.13915
