26
87_2.log	Energy: -396782.7253108
C          2.58230        0.26943       -0.72951
C          3.33054       -0.89608       -0.63642
C          2.99687       -1.86404        0.30561
C          1.91118       -1.66428        1.15201
C          1.14730       -0.51016        1.04456
C          1.47880        0.46156        0.10044
C          0.73148        1.75156        0.00513
O          1.32664        2.81732       -0.11106
N         -0.63132        1.73047        0.10643
C         -1.53710        0.65778       -0.05823
C         -1.33627       -0.33269       -1.01888
C         -2.25427       -1.36600       -1.14830
C         -3.39037       -1.40781       -0.34692
C         -3.60383       -0.40280        0.59031
C         -2.67945        0.62234        0.74074
H          2.84457        1.03595       -1.44650
H          4.17738       -1.04671       -1.29364
H          3.58484       -2.76975        0.38352
H          1.65749       -2.40908        1.89532
H          0.30095       -0.36201        1.70102
H         -1.04063        2.64947        0.21360
H         -0.46886       -0.29221       -1.66196
H         -2.08628       -2.13422       -1.89234
H         -4.10650       -2.21162       -0.45766
H         -4.48752       -0.42028        1.21546
H         -2.83235        1.39566        1.48338
