26
87_3.log	Energy: -396785.8151937
C          2.26947        1.10026        0.42450
C          3.60450        1.48281        0.39279
C          4.57737        0.58640       -0.03430
C          4.21224       -0.70018       -0.41849
C          2.88097       -1.08733       -0.37585
C          1.89581       -0.18769        0.03455
C          0.47945       -0.67678        0.06689
O          0.21987       -1.86645        0.19438
N         -0.46927        0.29585       -0.06898
C         -1.86833        0.18518       -0.04647
C         -2.55049       -1.00002        0.24194
C         -3.94081       -1.00340        0.25142
C         -4.66628        0.14943       -0.02142
C         -3.98370        1.32792       -0.30783
C         -2.59859        1.34770       -0.32055
H          1.53246        1.80558        0.78687
H          3.88456        2.47946        0.70887
H          5.61690        0.88723       -0.06174
H          4.96661       -1.40254       -0.74910
H          2.58748       -2.08803       -0.66162
H         -0.12774        1.22368       -0.26557
H         -1.99644       -1.89928        0.45049
H         -4.45895       -1.92728        0.47646
H         -5.74827        0.13198       -0.01196
H         -4.53082        2.23697       -0.52337
H         -2.06964        2.26713       -0.54450
