26
87_5.log	Energy: -396782.7253635
C         -2.58252        0.26946       -0.72920
C         -3.33080       -0.89600       -0.63605
C         -2.99680       -1.86422        0.30560
C         -1.91071       -1.66477        1.15153
C         -1.14681       -0.51067        1.04404
C         -1.47866        0.46135        0.10032
C         -0.73148        1.75148        0.00523
O         -1.32700        2.81715       -0.11038
N          0.63124        1.73070        0.10621
C          1.53716        0.65803       -0.05843
C          2.67894        0.62210        0.74131
C          3.60326       -0.40309        0.59104
C          3.39025       -1.40764       -0.34681
C          2.25474       -1.36535       -1.14895
C          1.33682       -0.33193       -1.01966
H         -2.84502        1.03616       -1.44591
H         -4.17796       -1.04639       -1.29291
H         -3.58482       -2.76989        0.38355
H         -1.65669       -2.40979        1.89451
H         -0.30016       -0.36274        1.70016
H          1.04050        2.64975        0.21320
H          2.83139        1.39509        1.48438
H          4.48655       -0.42105        1.21674
H          4.10635       -2.21150       -0.45737
H          2.08714       -2.13323       -1.89342
H          0.46981       -0.29096       -1.66325
