26
88_1.log	Energy: -396785.8152176
C          2.59852        1.34780        0.32021
C          3.98363        1.32800        0.30786
C          4.66628        0.14944        0.02191
C          3.94085       -1.00345       -0.25088
C          2.55053       -1.00005       -0.24177
C          1.86831        0.18523        0.04623
N          0.46925        0.29589        0.06844
C         -0.47945       -0.67682       -0.06729
O         -0.21983       -1.86645       -0.19493
C         -1.89583       -0.18774       -0.03467
C         -2.88092       -1.08737        0.37593
C         -4.21216       -0.70018        0.41884
C         -4.57734        0.58641        0.03470
C         -3.60456        1.48279       -0.39260
C         -2.26952        1.10020       -0.42457
H          2.06953        2.26729        0.54381
H          4.53071        2.23710        0.52333
H          5.74828        0.13196        0.01275
H          4.45904       -1.92739       -0.47559
H          1.99652       -1.89932       -0.45035
H          0.12765        1.22366        0.26521
H         -2.58740       -2.08809        0.66163
H         -4.96649       -1.40252        0.74962
H         -5.61688        0.88725        0.06235
H         -3.88463        2.47944       -0.70866
H         -1.53256        1.80550       -0.78707
