35
89_1.log	Energy: -460610.6202039
C          2.47886        0.26122       -1.09889
C          3.80299        0.07034       -0.72704
C          4.10754       -0.66431        0.41504
C          3.07722       -1.20574        1.17370
C          1.75164       -1.01439        0.79569
C          1.43603       -0.27584       -0.34244
C          0.00049       -0.00022       -0.76778
C         -0.47894        1.38083       -0.34265
C          0.00557        2.02522        0.79325
C         -0.49203        3.26855        1.17164
C         -1.47930        3.88806        0.41552
C         -1.96595        3.25521       -0.72445
C         -1.46880        2.01334       -1.09651
C         -0.95629       -1.10527       -0.34244
C         -1.75127       -1.00936        0.79744
C         -2.58003       -2.06105        1.17641
C         -2.62923       -3.22338        0.41684
C         -1.84312       -3.32697       -0.72685
C         -1.01532       -2.27625       -1.09962
H          2.24675        0.83836       -1.98640
H          4.59772        0.49250       -1.32955
H          5.13905       -0.81670        0.70658
H          3.30286       -1.78276        2.06198
H          0.95947       -1.44799        1.39112
H          0.00077       -0.00040       -1.86045
H          0.77984        1.55767        1.38659
H         -0.10275        3.75374        2.05817
H         -1.86339        4.85731        0.70750
H         -2.73162        3.73066       -1.32490
H         -1.85492        1.52256       -1.98237
H         -1.72842       -0.10698        1.39352
H         -3.19042       -1.96785        2.06613
H         -3.27715       -4.04002        0.70921
H         -1.87677       -4.22593       -1.32980
H         -0.40137       -2.36410       -1.98842
