35
89_3.log	Energy: -460610.6244841
C          1.50228        1.35806        0.79246
C          2.75947        1.81881        1.17194
C          3.88069        1.49798        0.41686
C          3.73599        0.71273       -0.72304
C          2.48011        0.25302       -1.09643
C          1.34754        0.56678       -0.34348
C          0.00007        0.00003       -0.76899
C         -1.16446        0.88361       -0.34337
C         -1.92689        0.62187        0.79261
C         -2.95446        1.48021        1.17208
C         -3.23783        2.61131        0.41673
C         -2.48586        2.87860       -0.72346
C         -1.45955        2.02108       -1.09673
C         -0.18302       -1.45016       -0.34324
C         -1.01971       -2.27458       -1.09708
C         -1.24924       -3.59222       -0.72394
C         -0.64289       -4.10953        0.41686
C          0.19421       -3.29831        1.17296
C          0.42379       -1.97926        0.79352
H          0.63635        1.62144        1.38479
H          2.85943        2.43262        2.05860
H          4.85825        1.85979        0.70961
H          4.60194        0.46087       -1.32266
H          2.37382       -0.36226       -1.98230
H         -0.00018        0.00005       -1.86171
H         -1.72207       -0.25945        1.38542
H         -3.53603        1.26003        2.05876
H         -4.04031        3.27659        0.70939
H         -2.70108        3.75411       -1.32347
H         -0.87381        2.23661       -1.98279
H         -1.49852       -1.87505       -1.98346
H         -1.89925       -4.21645       -1.32450
H         -0.81803       -5.13711        0.70955
H          0.67474       -3.69162        2.06027
H          1.08333       -1.36044        1.38688
