35
89_4.log	Energy: -460610.6211678
C         -1.25403        1.59134        0.79317
C         -2.41641        2.25644        1.17173
C         -3.57468        2.12942        0.41507
C         -3.56268        1.33200       -0.72553
C         -2.40151        0.66793       -1.09786
C         -1.23319        0.78615       -0.34321
C          0.00015        0.00094       -0.76779
C         -0.06337       -1.45943       -0.34275
C         -0.75486       -1.88000        0.79095
C         -0.75168       -3.21931        1.16916
C         -0.05915       -4.15886        0.41548
C          0.63053       -3.74966       -0.72194
C          0.62708       -2.41190       -1.09396
C          1.29677        0.67557       -0.34175
C          1.78260        1.74340       -1.09807
C          2.93980        2.41437       -0.72560
C          3.63328        2.02700        0.41718
C          3.15994        0.96357        1.17570
C          2.00150        0.29182        0.79686
H         -0.35738        1.70489        1.38744
H         -2.41316        2.87746        2.05898
H         -4.47796        2.65005        0.70708
H         -4.45784        1.22957       -1.32642
H         -2.39893        0.04376       -1.98386
H          0.00075        0.00160       -1.86050
H         -1.30460       -1.16006        1.38218
H         -1.29547       -3.52726        2.05368
H         -0.06012       -5.20145        0.70743
H          1.16935       -4.47361       -1.32062
H          1.16968       -2.09784       -1.97805
H          1.24356        2.05216       -1.98620
H          3.30228        3.23819       -1.32791
H          4.53697        2.54684        0.70931
H          3.69399        0.65061        2.06438
H          1.64834       -0.53961        1.39199
