21
9_1.log	Energy: -219860.7544831
C         -0.39277        1.09335        0.00017
C         -1.76613        1.30242        0.00025
C         -2.64018        0.21942        0.00007
C         -2.12616       -1.07147       -0.00020
C         -0.74948       -1.27436       -0.00029
C          0.13829       -0.19897       -0.00010
C          1.63548       -0.43254       -0.00015
C          2.29636        0.13204        1.26241
C          2.29648        0.13297       -1.26223
H          0.27301        1.94758        0.00031
H         -2.15584        2.31307        0.00046
H         -3.71064        0.38196        0.00014
H         -2.79572       -1.92288       -0.00036
H         -0.35646       -2.28461       -0.00050
H          1.78951       -1.51510       -0.00054
H          2.19217        1.21848        1.30879
H          3.36356       -0.10168        1.27341
H          1.84647       -0.28720        2.16455
H          2.19238        1.21945       -1.30778
H          1.84662       -0.28554       -2.16473
H          3.36366       -0.10082       -1.27334
